003_CCC[N+](C)(C)C
     RDKit          3D

 23 22  0  0  0  0  0  0  0  0999 V2000
    2.9634   -0.2824   -0.0183 C   0  0  0  0  0  0  0  0  0  0  0  0
    1.5967    0.3510   -0.2425 C   0  0  0  0  0  0  0  0  0  0  0  0
    0.4852   -0.5786    0.2431 C   0  0  0  0  0  0  0  0  0  0  0  0
   -0.9315   -0.0065    0.0498 N   0  0  0  0  0  0  0  0  0  0  0  0
   -1.1268    1.2843    0.8367 C   0  0  0  0  0  0  0  0  0  0  0  0
   -1.9276   -1.0440    0.5794 C   0  0  0  0  0  0  0  0  0  0  0  0
   -1.2403    0.2400   -1.4224 C   0  0  0  0  0  0  0  0  0  0  0  0
    3.7540    0.3888   -0.3682 H   0  0  0  0  0  0  0  0  0  0  0  0
    3.1335   -0.4825    1.0445 H   0  0  0  0  0  0  0  0  0  0  0  0
    3.0527   -1.2266   -0.5652 H   0  0  0  0  0  0  0  0  0  0  0  0
    1.5700    1.3059    0.2916 H   0  0  0  0  0  0  0  0  0  0  0  0
    1.4896    0.5654   -1.3103 H   0  0  0  0  0  0  0  0  0  0  0  0
    0.5993   -0.7856    1.3141 H   0  0  0  0  0  0  0  0  0  0  0  0
    0.5183   -1.5313   -0.2992 H   0  0  0  0  0  0  0  0  0  0  0  0
   -0.5066    2.0680    0.3948 H   0  0  0  0  0  0  0  0  0  0  0  0
   -2.1810    1.5712    0.7731 H   0  0  0  0  0  0  0  0  0  0  0  0
   -0.8422    1.1022    1.8769 H   0  0  0  0  0  0  0  0  0  0  0  0
   -1.7180   -1.2140    1.6397 H   0  0  0  0  0  0  0  0  0  0  0  0
   -2.9410   -0.6524    0.4493 H   0  0  0  0  0  0  0  0  0  0  0  0
   -1.8000   -1.9683    0.0081 H   0  0  0  0  0  0  0  0  0  0  0  0
   -0.6161    1.0605   -1.7846 H   0  0  0  0  0  0  0  0  0  0  0  0
   -2.2958    0.5147   -1.5125 H   0  0  0  0  0  0  0  0  0  0  0  0
   -1.0358   -0.6798   -1.9779 H   0  0  0  0  0  0  0  0  0  0  0  0
  1  2  1  0
  2  3  1  0
  3  4  1  0
  4  5  1  0
  4  6  1  0
  4  7  1  0
  1  8  1  0
  1  9  1  0
  1 10  1  0
  2 11  1  0
  2 12  1  0
  3 13  1  0
  3 14  1  0
  5 15  1  0
  5 16  1  0
  5 17  1  0
  6 18  1  0
  6 19  1  0
  6 20  1  0
  7 21  1  0
  7 22  1  0
  7 23  1  0
M  CHG  1   4   1
M  END
