006_CCC[N+](C)(C)CC
     RDKit          3D

 26 25  0  0  0  0  0  0  0  0999 V2000
    3.3033   -0.1349   -0.4803 C   0  0  0  0  0  0  0  0  0  0  0  0
    1.8059   -0.2488   -0.7348 C   0  0  0  0  0  0  0  0  0  0  0  0
    1.0195    0.0250    0.5473 C   0  0  0  0  0  0  0  0  0  0  0  0
   -0.5180   -0.1104    0.3846 N   0  0  0  0  0  0  0  0  0  0  0  0
   -0.8830   -1.5362   -0.0228 C   0  0  0  0  0  0  0  0  0  0  0  0
   -1.1254    0.1678    1.7664 C   0  0  0  0  0  0  0  0  0  0  0  0
   -1.0289    0.9134   -0.6477 C   0  0  0  0  0  0  0  0  0  0  0  0
   -2.5454    0.9905   -0.7404 C   0  0  0  0  0  0  0  0  0  0  0  0
    3.8601   -0.3289   -1.4025 H   0  0  0  0  0  0  0  0  0  0  0  0
    3.5663    0.8681   -0.1292 H   0  0  0  0  0  0  0  0  0  0  0  0
    3.6297   -0.8599    0.2722 H   0  0  0  0  0  0  0  0  0  0  0  0
    1.5395    0.4664   -1.5189 H   0  0  0  0  0  0  0  0  0  0  0  0
    1.5981   -1.2530   -1.1168 H   0  0  0  0  0  0  0  0  0  0  0  0
    1.3175   -0.6799    1.3331 H   0  0  0  0  0  0  0  0  0  0  0  0
    1.2097    1.0437    0.9066 H   0  0  0  0  0  0  0  0  0  0  0  0
   -1.9622   -1.6711    0.0885 H   0  0  0  0  0  0  0  0  0  0  0  0
   -0.3538   -2.2302    0.6368 H   0  0  0  0  0  0  0  0  0  0  0  0
   -0.5935   -1.6923   -1.0649 H   0  0  0  0  0  0  0  0  0  0  0  0
   -2.1992   -0.0328    1.7326 H   0  0  0  0  0  0  0  0  0  0  0  0
   -0.9313    1.2130    2.0236 H   0  0  0  0  0  0  0  0  0  0  0  0
   -0.6534   -0.5017    2.4921 H   0  0  0  0  0  0  0  0  0  0  0  0
   -0.6241    0.6243   -1.6224 H   0  0  0  0  0  0  0  0  0  0  0  0
   -0.6171    1.8890   -0.3660 H   0  0  0  0  0  0  0  0  0  0  0  0
   -2.9948    0.0241   -0.9831 H   0  0  0  0  0  0  0  0  0  0  0  0
   -2.9944    1.3664    0.1832 H   0  0  0  0  0  0  0  0  0  0  0  0
   -2.8252    1.6884   -1.5371 H   0  0  0  0  0  0  0  0  0  0  0  0
  1  2  1  0
  2  3  1  0
  3  4  1  0
  4  5  1  0
  4  6  1  0
  4  7  1  0
  7  8  1  0
  1  9  1  0
  1 10  1  0
  1 11  1  0
  2 12  1  0
  2 13  1  0
  3 14  1  0
  3 15  1  0
  5 16  1  0
  5 17  1  0
  5 18  1  0
  6 19  1  0
  6 20  1  0
  6 21  1  0
  7 22  1  0
  7 23  1  0
  8 24  1  0
  8 25  1  0
  8 26  1  0
M  CHG  1   4   1
M  END
