010_CCC[N+](C)(C)CCC
     RDKit          3D

 29 28  0  0  0  0  0  0  0  0999 V2000
    3.3345    1.0911    0.5500 C   0  0  0  0  0  0  0  0  0  0  0  0
    2.3883   -0.0801    0.3199 C   0  0  0  0  0  0  0  0  0  0  0  0
    0.9791    0.4194   -0.0030 C   0  0  0  0  0  0  0  0  0  0  0  0
   -0.0613   -0.7086   -0.1669 N   0  0  0  0  0  0  0  0  0  0  0  0
   -0.2892   -1.4470    1.1502 C   0  0  0  0  0  0  0  0  0  0  0  0
    0.4035   -1.7260   -1.2176 C   0  0  0  0  0  0  0  0  0  0  0  0
   -1.3992   -0.1205   -0.6907 C   0  0  0  0  0  0  0  0  0  0  0  0
   -2.0364    0.9049    0.2473 C   0  0  0  0  0  0  0  0  0  0  0  0
   -3.3620    1.3979   -0.3179 C   0  0  0  0  0  0  0  0  0  0  0  0
    3.3928    1.7285   -0.3382 H   0  0  0  0  0  0  0  0  0  0  0  0
    4.3419    0.7259    0.7729 H   0  0  0  0  0  0  0  0  0  0  0  0
    3.0015    1.7047    1.3932 H   0  0  0  0  0  0  0  0  0  0  0  0
    2.7872   -0.6805   -0.5039 H   0  0  0  0  0  0  0  0  0  0  0  0
    2.3878   -0.7058    1.2176 H   0  0  0  0  0  0  0  0  0  0  0  0
    0.6252    1.0680    0.8048 H   0  0  0  0  0  0  0  0  0  0  0  0
    0.9806    0.9890   -0.9398 H   0  0  0  0  0  0  0  0  0  0  0  0
   -0.4646   -0.7142    1.9417 H   0  0  0  0  0  0  0  0  0  0  0  0
   -1.1538   -2.1066    1.0314 H   0  0  0  0  0  0  0  0  0  0  0  0
    0.5989   -2.0409    1.3820 H   0  0  0  0  0  0  0  0  0  0  0  0
    1.2763   -2.2619   -0.8362 H   0  0  0  0  0  0  0  0  0  0  0  0
   -0.4098   -2.4369   -1.3934 H   0  0  0  0  0  0  0  0  0  0  0  0
    0.6475   -1.1850   -2.1364 H   0  0  0  0  0  0  0  0  0  0  0  0
   -2.0784   -0.9680   -0.8441 H   0  0  0  0  0  0  0  0  0  0  0  0
   -1.1840    0.3310   -1.6669 H   0  0  0  0  0  0  0  0  0  0  0  0
   -2.2239    0.4717    1.2346 H   0  0  0  0  0  0  0  0  0  0  0  0
   -1.3825    1.7716    0.3837 H   0  0  0  0  0  0  0  0  0  0  0  0
   -3.8110    2.1338    0.3565 H   0  0  0  0  0  0  0  0  0  0  0  0
   -3.2198    1.8734   -1.2936 H   0  0  0  0  0  0  0  0  0  0  0  0
   -4.0694    0.5709   -0.4374 H   0  0  0  0  0  0  0  0  0  0  0  0
  1  2  1  0
  2  3  1  0
  3  4  1  0
  4  5  1  0
  4  6  1  0
  4  7  1  0
  7  8  1  0
  8  9  1  0
  1 10  1  0
  1 11  1  0
  1 12  1  0
  2 13  1  0
  2 14  1  0
  3 15  1  0
  3 16  1  0
  5 17  1  0
  5 18  1  0
  5 19  1  0
  6 20  1  0
  6 21  1  0
  6 22  1  0
  7 23  1  0
  7 24  1  0
  8 25  1  0
  8 26  1  0
  9 27  1  0
  9 28  1  0
  9 29  1  0
M  CHG  1   4   1
M  END
