014_CCCCC[N+](C)(C)CC
     RDKit          3D

 32 31  0  0  0  0  0  0  0  0999 V2000
    3.9507    0.8031    0.4154 C   0  0  0  0  0  0  0  0  0  0  0  0
    3.4893   -0.0405   -0.7629 C   0  0  0  0  0  0  0  0  0  0  0  0
    2.0300    0.2023   -1.1547 C   0  0  0  0  0  0  0  0  0  0  0  0
    1.0303   -0.2317   -0.0762 C   0  0  0  0  0  0  0  0  0  0  0  0
   -0.4059   -0.0671   -0.5820 C   0  0  0  0  0  0  0  0  0  0  0  0
   -1.4824   -0.4016    0.4724 N   0  0  0  0  0  0  0  0  0  0  0  0
   -1.4467    0.5889    1.6345 C   0  0  0  0  0  0  0  0  0  0  0  0
   -1.2722   -1.8140    1.0332 C   0  0  0  0  0  0  0  0  0  0  0  0
   -2.8842   -0.3977   -0.1897 C   0  0  0  0  0  0  0  0  0  0  0  0
   -3.2826    0.9437   -0.7844 C   0  0  0  0  0  0  0  0  0  0  0  0
    3.4322    0.5232    1.3370 H   0  0  0  0  0  0  0  0  0  0  0  0
    5.0230    0.6592    0.5828 H   0  0  0  0  0  0  0  0  0  0  0  0
    3.7770    1.8676    0.2290 H   0  0  0  0  0  0  0  0  0  0  0  0
    3.6431   -1.1015   -0.5344 H   0  0  0  0  0  0  0  0  0  0  0  0
    4.1234    0.1924   -1.6268 H   0  0  0  0  0  0  0  0  0  0  0  0
    1.8845    1.2640   -1.3884 H   0  0  0  0  0  0  0  0  0  0  0  0
    1.8262   -0.3554   -2.0773 H   0  0  0  0  0  0  0  0  0  0  0  0
    1.2291   -1.2773    0.1810 H   0  0  0  0  0  0  0  0  0  0  0  0
    1.1862    0.3691    0.8242 H   0  0  0  0  0  0  0  0  0  0  0  0
   -0.5867   -0.7255   -1.4397 H   0  0  0  0  0  0  0  0  0  0  0  0
   -0.5706    0.9703   -0.8911 H   0  0  0  0  0  0  0  0  0  0  0  0
   -1.4378    1.6053    1.2333 H   0  0  0  0  0  0  0  0  0  0  0  0
   -2.3312    0.4235    2.2566 H   0  0  0  0  0  0  0  0  0  0  0  0
   -0.5433    0.4118    2.2240 H   0  0  0  0  0  0  0  0  0  0  0  0
   -0.3516   -1.8325    1.6220 H   0  0  0  0  0  0  0  0  0  0  0  0
   -1.2135   -2.5126    0.1936 H   0  0  0  0  0  0  0  0  0  0  0  0
   -2.1208   -2.0588    1.6794 H   0  0  0  0  0  0  0  0  0  0  0  0
   -2.8730   -1.1706   -0.9671 H   0  0  0  0  0  0  0  0  0  0  0  0
   -3.6048   -0.6917    0.5824 H   0  0  0  0  0  0  0  0  0  0  0  0
   -4.2943    0.8701   -1.1980 H   0  0  0  0  0  0  0  0  0  0  0  0
   -3.2982    1.7402   -0.0357 H   0  0  0  0  0  0  0  0  0  0  0  0
   -2.6248    1.2437   -1.6043 H   0  0  0  0  0  0  0  0  0  0  0  0
  1  2  1  0
  2  3  1  0
  3  4  1  0
  4  5  1  0
  5  6  1  0
  6  7  1  0
  6  8  1  0
  6  9  1  0
  9 10  1  0
  1 11  1  0
  1 12  1  0
  1 13  1  0
  2 14  1  0
  2 15  1  0
  3 16  1  0
  3 17  1  0
  4 18  1  0
  4 19  1  0
  5 20  1  0
  5 21  1  0
  7 22  1  0
  7 23  1  0
  7 24  1  0
  8 25  1  0
  8 26  1  0
  8 27  1  0
  9 28  1  0
  9 29  1  0
 10 30  1  0
 10 31  1  0
 10 32  1  0
M  CHG  1   6   1
M  END
