017_CCC[N+](C)(CC)CCC
     RDKit          3D

 32 31  0  0  0  0  0  0  0  0999 V2000
   -3.3921   -1.7439   -0.2801 C   0  0  0  0  0  0  0  0  0  0  0  0
   -2.1143   -0.9923   -0.6296 C   0  0  0  0  0  0  0  0  0  0  0  0
   -1.5797   -0.2432    0.5931 C   0  0  0  0  0  0  0  0  0  0  0  0
   -0.1988    0.4619    0.3574 N   0  0  0  0  0  0  0  0  0  0  0  0
    0.1351    1.1311    1.6996 C   0  0  0  0  0  0  0  0  0  0  0  0
   -0.3857    1.5336   -0.7411 C   0  0  0  0  0  0  0  0  0  0  0  0
    0.8487    2.3643   -1.0421 C   0  0  0  0  0  0  0  0  0  0  0  0
    0.8435   -0.6154   -0.0343 C   0  0  0  0  0  0  0  0  0  0  0  0
    2.2782   -0.3204    0.4071 C   0  0  0  0  0  0  0  0  0  0  0  0
    3.2394   -1.3569   -0.1599 C   0  0  0  0  0  0  0  0  0  0  0  0
   -3.7756   -2.2691   -1.1606 H   0  0  0  0  0  0  0  0  0  0  0  0
   -3.2090   -2.4854    0.5042 H   0  0  0  0  0  0  0  0  0  0  0  0
   -4.1684   -1.0561    0.0702 H   0  0  0  0  0  0  0  0  0  0  0  0
   -2.3447   -0.2977   -1.4430 H   0  0  0  0  0  0  0  0  0  0  0  0
   -1.3828   -1.7125   -1.0082 H   0  0  0  0  0  0  0  0  0  0  0  0
   -1.4373   -0.9323    1.4348 H   0  0  0  0  0  0  0  0  0  0  0  0
   -2.2857    0.5374    0.9020 H   0  0  0  0  0  0  0  0  0  0  0  0
    1.0848    1.6625    1.6225 H   0  0  0  0  0  0  0  0  0  0  0  0
    0.1986    0.3518    2.4651 H   0  0  0  0  0  0  0  0  0  0  0  0
   -0.6648    1.8379    1.9407 H   0  0  0  0  0  0  0  0  0  0  0  0
   -0.6899    1.0184   -1.6566 H   0  0  0  0  0  0  0  0  0  0  0  0
   -1.2055    2.1832   -0.4140 H   0  0  0  0  0  0  0  0  0  0  0  0
    0.5887    3.1464   -1.7643 H   0  0  0  0  0  0  0  0  0  0  0  0
    1.2501    2.8665   -0.1592 H   0  0  0  0  0  0  0  0  0  0  0  0
    1.6349    1.7630   -1.5054 H   0  0  0  0  0  0  0  0  0  0  0  0
    0.5268   -1.5524    0.4393 H   0  0  0  0  0  0  0  0  0  0  0  0
    0.7787   -0.7411   -1.1209 H   0  0  0  0  0  0  0  0  0  0  0  0
    2.3521   -0.3534    1.4999 H   0  0  0  0  0  0  0  0  0  0  0  0
    2.6117    0.6697    0.0901 H   0  0  0  0  0  0  0  0  0  0  0  0
    3.2338   -1.3389   -1.2544 H   0  0  0  0  0  0  0  0  0  0  0  0
    4.2602   -1.1516    0.1778 H   0  0  0  0  0  0  0  0  0  0  0  0
    2.9690   -2.3652    0.1699 H   0  0  0  0  0  0  0  0  0  0  0  0
  1  2  1  0
  2  3  1  0
  3  4  1  0
  4  5  1  0
  4  6  1  0
  6  7  1  0
  4  8  1  0
  8  9  1  0
  9 10  1  0
  1 11  1  0
  1 12  1  0
  1 13  1  0
  2 14  1  0
  2 15  1  0
  3 16  1  0
  3 17  1  0
  5 18  1  0
  5 19  1  0
  5 20  1  0
  6 21  1  0
  6 22  1  0
  7 23  1  0
  7 24  1  0
  7 25  1  0
  8 26  1  0
  8 27  1  0
  9 28  1  0
  9 29  1  0
 10 30  1  0
 10 31  1  0
 10 32  1  0
M  CHG  1   4   1
M  END
