025_CCCC[N+](CC)(CC)CC
     RDKit          3D

 35 34  0  0  0  0  0  0  0  0999 V2000
    3.6239    1.1389    0.0527 C   0  0  0  0  0  0  0  0  0  0  0  0
    3.0281    0.1191    1.0111 C   0  0  0  0  0  0  0  0  0  0  0  0
    1.5021    0.2100    1.1316 C   0  0  0  0  0  0  0  0  0  0  0  0
    0.7913   -0.1608   -0.1715 C   0  0  0  0  0  0  0  0  0  0  0  0
   -0.7656   -0.1642   -0.0760 N   0  0  0  0  0  0  0  0  0  0  0  0
   -1.2672   -1.1767    0.9928 C   0  0  0  0  0  0  0  0  0  0  0  0
   -0.8244   -2.6109    0.7561 C   0  0  0  0  0  0  0  0  0  0  0  0
   -1.3060    1.2267    0.3623 C   0  0  0  0  0  0  0  0  0  0  0  0
   -0.9182    2.3704   -0.5602 C   0  0  0  0  0  0  0  0  0  0  0  0
   -1.2790   -0.5462   -1.4948 C   0  0  0  0  0  0  0  0  0  0  0  0
   -2.7921   -0.6071   -1.6220 C   0  0  0  0  0  0  0  0  0  0  0  0
    3.3185    0.9465   -0.9799 H   0  0  0  0  0  0  0  0  0  0  0  0
    3.3192    2.1554    0.3208 H   0  0  0  0  0  0  0  0  0  0  0  0
    4.7171    1.0926    0.0878 H   0  0  0  0  0  0  0  0  0  0  0  0
    3.4639    0.2804    2.0044 H   0  0  0  0  0  0  0  0  0  0  0  0
    3.3187   -0.8906    0.6982 H   0  0  0  0  0  0  0  0  0  0  0  0
    1.2017   -0.4671    1.9369 H   0  0  0  0  0  0  0  0  0  0  0  0
    1.2385    1.2248    1.4464 H   0  0  0  0  0  0  0  0  0  0  0  0
    1.0946   -1.1584   -0.5066 H   0  0  0  0  0  0  0  0  0  0  0  0
    1.0529    0.5367   -0.9730 H   0  0  0  0  0  0  0  0  0  0  0  0
   -0.9133   -0.8268    1.9678 H   0  0  0  0  0  0  0  0  0  0  0  0
   -2.3601   -1.1155    1.0131 H   0  0  0  0  0  0  0  0  0  0  0  0
   -1.2295   -3.2486    1.5496 H   0  0  0  0  0  0  0  0  0  0  0  0
    0.2626   -2.7200    0.7857 H   0  0  0  0  0  0  0  0  0  0  0  0
   -1.1942   -3.0096   -0.1918 H   0  0  0  0  0  0  0  0  0  0  0  0
   -0.9371    1.4158    1.3758 H   0  0  0  0  0  0  0  0  0  0  0  0
   -2.3958    1.1471    0.4306 H   0  0  0  0  0  0  0  0  0  0  0  0
   -1.3098    2.2393   -1.5720 H   0  0  0  0  0  0  0  0  0  0  0  0
    0.1642    2.5112   -0.6158 H   0  0  0  0  0  0  0  0  0  0  0  0
   -1.3410    3.3043   -0.1736 H   0  0  0  0  0  0  0  0  0  0  0  0
   -0.8380   -1.5149   -1.7514 H   0  0  0  0  0  0  0  0  0  0  0  0
   -0.8698    0.1863   -2.1983 H   0  0  0  0  0  0  0  0  0  0  0  0
   -3.2337   -1.3664   -0.9719 H   0  0  0  0  0  0  0  0  0  0  0  0
   -3.2662    0.3554   -1.4145 H   0  0  0  0  0  0  0  0  0  0  0  0
   -3.0563   -0.8768   -2.6505 H   0  0  0  0  0  0  0  0  0  0  0  0
  1  2  1  0
  2  3  1  0
  3  4  1  0
  4  5  1  0
  5  6  1  0
  6  7  1  0
  5  8  1  0
  8  9  1  0
  5 10  1  0
 10 11  1  0
  1 12  1  0
  1 13  1  0
  1 14  1  0
  2 15  1  0
  2 16  1  0
  3 17  1  0
  3 18  1  0
  4 19  1  0
  4 20  1  0
  6 21  1  0
  6 22  1  0
  7 23  1  0
  7 24  1  0
  7 25  1  0
  8 26  1  0
  8 27  1  0
  9 28  1  0
  9 29  1  0
  9 30  1  0
 10 31  1  0
 10 32  1  0
 11 33  1  0
 11 34  1  0
 11 35  1  0
M  CHG  1   5   1
M  END
