030_CCCCCC[N+](C)(C)CCC
     RDKit          3D

 38 37  0  0  0  0  0  0  0  0999 V2000
    4.9027    0.0578    0.5337 C   0  0  0  0  0  0  0  0  0  0  0  0
    4.3708    0.4623   -0.8324 C   0  0  0  0  0  0  0  0  0  0  0  0
    3.1352   -0.3295   -1.2662 C   0  0  0  0  0  0  0  0  0  0  0  0
    1.9103   -0.0768   -0.3801 C   0  0  0  0  0  0  0  0  0  0  0  0
    0.6741   -0.7853   -0.9337 C   0  0  0  0  0  0  0  0  0  0  0  0
   -0.5170   -0.9220    0.0233 C   0  0  0  0  0  0  0  0  0  0  0  0
   -1.2794    0.3703    0.3878 N   0  0  0  0  0  0  0  0  0  0  0  0
   -0.5618    1.1058    1.5298 C   0  0  0  0  0  0  0  0  0  0  0  0
   -1.4224    1.3267   -0.7894 C   0  0  0  0  0  0  0  0  0  0  0  0
   -2.6835   -0.0071    0.9509 C   0  0  0  0  0  0  0  0  0  0  0  0
   -3.6753   -0.4914   -0.1098 C   0  0  0  0  0  0  0  0  0  0  0  0
   -4.9842   -0.9231    0.5386 C   0  0  0  0  0  0  0  0  0  0  0  0
    5.8378    0.5867    0.7441 H   0  0  0  0  0  0  0  0  0  0  0  0
    4.1954    0.3080    1.3298 H   0  0  0  0  0  0  0  0  0  0  0  0
    5.1051   -1.0171    0.5744 H   0  0  0  0  0  0  0  0  0  0  0  0
    4.1458    1.5352   -0.8329 H   0  0  0  0  0  0  0  0  0  0  0  0
    5.1622    0.3045   -1.5749 H   0  0  0  0  0  0  0  0  0  0  0  0
    2.8938   -0.0500   -2.2994 H   0  0  0  0  0  0  0  0  0  0  0  0
    3.3716   -1.4006   -1.2754 H   0  0  0  0  0  0  0  0  0  0  0  0
    2.1076   -0.4283    0.6382 H   0  0  0  0  0  0  0  0  0  0  0  0
    1.7363    1.0019   -0.3410 H   0  0  0  0  0  0  0  0  0  0  0  0
    0.3671   -0.3172   -1.8757 H   0  0  0  0  0  0  0  0  0  0  0  0
    0.9679   -1.8093   -1.2027 H   0  0  0  0  0  0  0  0  0  0  0  0
   -1.2368   -1.5887   -0.4585 H   0  0  0  0  0  0  0  0  0  0  0  0
   -0.2149   -1.3973    0.9640 H   0  0  0  0  0  0  0  0  0  0  0  0
    0.4091    1.4571    1.1869 H   0  0  0  0  0  0  0  0  0  0  0  0
   -1.1706    1.9673    1.8223 H   0  0  0  0  0  0  0  0  0  0  0  0
   -0.4497    0.4159    2.3712 H   0  0  0  0  0  0  0  0  0  0  0  0
   -1.8023    0.7711   -1.6507 H   0  0  0  0  0  0  0  0  0  0  0  0
   -2.1148    2.1245   -0.5040 H   0  0  0  0  0  0  0  0  0  0  0  0
   -0.4439    1.7563   -1.0188 H   0  0  0  0  0  0  0  0  0  0  0  0
   -2.5163   -0.7715    1.7193 H   0  0  0  0  0  0  0  0  0  0  0  0
   -3.0835    0.8913    1.4369 H   0  0  0  0  0  0  0  0  0  0  0  0
   -3.2808   -1.3351   -0.6820 H   0  0  0  0  0  0  0  0  0  0  0  0
   -3.8982    0.3099   -0.8223 H   0  0  0  0  0  0  0  0  0  0  0  0
   -5.4416   -0.0946    1.0890 H   0  0  0  0  0  0  0  0  0  0  0  0
   -4.8219   -1.7519    1.2351 H   0  0  0  0  0  0  0  0  0  0  0  0
   -5.6938   -1.2557   -0.2255 H   0  0  0  0  0  0  0  0  0  0  0  0
  1  2  1  0
  2  3  1  0
  3  4  1  0
  4  5  1  0
  5  6  1  0
  6  7  1  0
  7  8  1  0
  7  9  1  0
  7 10  1  0
 10 11  1  0
 11 12  1  0
  1 13  1  0
  1 14  1  0
  1 15  1  0
  2 16  1  0
  2 17  1  0
  3 18  1  0
  3 19  1  0
  4 20  1  0
  4 21  1  0
  5 22  1  0
  5 23  1  0
  6 24  1  0
  6 25  1  0
  8 26  1  0
  8 27  1  0
  8 28  1  0
  9 29  1  0
  9 30  1  0
  9 31  1  0
 10 32  1  0
 10 33  1  0
 11 34  1  0
 11 35  1  0
 12 36  1  0
 12 37  1  0
 12 38  1  0
M  CHG  1   7   1
M  END
