042_CCCCCCC[N+](C)(CC)CC
     RDKit          3D

 41 40  0  0  0  0  0  0  0  0999 V2000
    5.9808   -0.7819   -0.4433 C   0  0  0  0  0  0  0  0  0  0  0  0
    4.5420   -0.3468   -0.6770 C   0  0  0  0  0  0  0  0  0  0  0  0
    4.0189    0.4960    0.4867 C   0  0  0  0  0  0  0  0  0  0  0  0
    2.6131    1.0551    0.2498 C   0  0  0  0  0  0  0  0  0  0  0  0
    1.5327   -0.0264    0.1766 C   0  0  0  0  0  0  0  0  0  0  0  0
    0.1347    0.5922    0.0546 C   0  0  0  0  0  0  0  0  0  0  0  0
   -0.9308   -0.5042   -0.0333 C   0  0  0  0  0  0  0  0  0  0  0  0
   -2.3925    0.0269   -0.0292 N   0  0  0  0  0  0  0  0  0  0  0  0
   -2.7101    0.6751    1.3205 C   0  0  0  0  0  0  0  0  0  0  0  0
   -2.5573    1.0675   -1.1694 C   0  0  0  0  0  0  0  0  0  0  0  0
   -3.9873    1.5464   -1.3734 C   0  0  0  0  0  0  0  0  0  0  0  0
   -3.3594   -1.1609   -0.2875 C   0  0  0  0  0  0  0  0  0  0  0  0
   -3.1914   -2.3226    0.6810 C   0  0  0  0  0  0  0  0  0  0  0  0
    6.6423    0.0849   -0.3459 H   0  0  0  0  0  0  0  0  0  0  0  0
    6.3352   -1.3862   -1.2843 H   0  0  0  0  0  0  0  0  0  0  0  0
    6.0654   -1.3836    0.4672 H   0  0  0  0  0  0  0  0  0  0  0  0
    4.4875    0.2284   -1.6084 H   0  0  0  0  0  0  0  0  0  0  0  0
    3.9236   -1.2411   -0.8084 H   0  0  0  0  0  0  0  0  0  0  0  0
    4.0279   -0.0983    1.4085 H   0  0  0  0  0  0  0  0  0  0  0  0
    4.6991    1.3413    0.6502 H   0  0  0  0  0  0  0  0  0  0  0  0
    2.6046    1.6506   -0.6711 H   0  0  0  0  0  0  0  0  0  0  0  0
    2.3763    1.7421    1.0719 H   0  0  0  0  0  0  0  0  0  0  0  0
    1.5793   -0.6533    1.0753 H   0  0  0  0  0  0  0  0  0  0  0  0
    1.7110   -0.6785   -0.6858 H   0  0  0  0  0  0  0  0  0  0  0  0
   -0.0437    1.2395    0.9192 H   0  0  0  0  0  0  0  0  0  0  0  0
    0.1147    1.2208   -0.8419 H   0  0  0  0  0  0  0  0  0  0  0  0
   -0.8316   -1.1753    0.8261 H   0  0  0  0  0  0  0  0  0  0  0  0
   -0.8092   -1.0854   -0.9550 H   0  0  0  0  0  0  0  0  0  0  0  0
   -2.3476    0.0233    2.1196 H   0  0  0  0  0  0  0  0  0  0  0  0
   -3.7922    0.8052    1.4039 H   0  0  0  0  0  0  0  0  0  0  0  0
   -2.2110    1.6462    1.3728 H   0  0  0  0  0  0  0  0  0  0  0  0
   -2.1763    0.6025   -2.0856 H   0  0  0  0  0  0  0  0  0  0  0  0
   -1.9308    1.9288   -0.9178 H   0  0  0  0  0  0  0  0  0  0  0  0
   -4.6356    0.7530   -1.7554 H   0  0  0  0  0  0  0  0  0  0  0  0
   -4.4248    1.9502   -0.4566 H   0  0  0  0  0  0  0  0  0  0  0  0
   -3.9975    2.3482   -2.1198 H   0  0  0  0  0  0  0  0  0  0  0  0
   -3.1888   -1.4949   -1.3172 H   0  0  0  0  0  0  0  0  0  0  0  0
   -4.3798   -0.7750   -0.2014 H   0  0  0  0  0  0  0  0  0  0  0  0
   -2.2340   -2.8337    0.5476 H   0  0  0  0  0  0  0  0  0  0  0  0
   -3.9740   -3.0660    0.4935 H   0  0  0  0  0  0  0  0  0  0  0  0
   -3.2834   -2.0102    1.7244 H   0  0  0  0  0  0  0  0  0  0  0  0
  1  2  1  0
  2  3  1  0
  3  4  1  0
  4  5  1  0
  5  6  1  0
  6  7  1  0
  7  8  1  0
  8  9  1  0
  8 10  1  0
 10 11  1  0
  8 12  1  0
 12 13  1  0
  1 14  1  0
  1 15  1  0
  1 16  1  0
  2 17  1  0
  2 18  1  0
  3 19  1  0
  3 20  1  0
  4 21  1  0
  4 22  1  0
  5 23  1  0
  5 24  1  0
  6 25  1  0
  6 26  1  0
  7 27  1  0
  7 28  1  0
  9 29  1  0
  9 30  1  0
  9 31  1  0
 10 32  1  0
 10 33  1  0
 11 34  1  0
 11 35  1  0
 11 36  1  0
 12 37  1  0
 12 38  1  0
 13 39  1  0
 13 40  1  0
 13 41  1  0
M  CHG  1   8   1
M  END
