047_CCCCC[N+](C)(CC)CCCC
     RDKit          3D

 41 40  0  0  0  0  0  0  0  0999 V2000
    5.1069    2.1168    0.7063 C   0  0  0  0  0  0  0  0  0  0  0  0
    4.2868    0.8961    0.3205 C   0  0  0  0  0  0  0  0  0  0  0  0
    2.7922    1.2148    0.2826 C   0  0  0  0  0  0  0  0  0  0  0  0
    1.9682   -0.0176   -0.1063 C   0  0  0  0  0  0  0  0  0  0  0  0
    0.4764    0.3262   -0.1423 C   0  0  0  0  0  0  0  0  0  0  0  0
   -0.4457   -0.8786   -0.4845 N   0  0  0  0  0  0  0  0  0  0  0  0
    0.0153   -1.5196   -1.8036 C   0  0  0  0  0  0  0  0  0  0  0  0
   -0.3849   -1.9211    0.6532 C   0  0  0  0  0  0  0  0  0  0  0  0
   -1.3869   -3.0557    0.5039 C   0  0  0  0  0  0  0  0  0  0  0  0
   -1.8846   -0.3395   -0.7344 C   0  0  0  0  0  0  0  0  0  0  0  0
   -2.5139    0.3338    0.4878 C   0  0  0  0  0  0  0  0  0  0  0  0
   -3.9838    0.7042    0.2592 C   0  0  0  0  0  0  0  0  0  0  0  0
   -4.1846    1.7549   -0.8221 C   0  0  0  0  0  0  0  0  0  0  0  0
    6.1722    1.8665    0.7272 H   0  0  0  0  0  0  0  0  0  0  0  0
    4.9629    2.9295   -0.0128 H   0  0  0  0  0  0  0  0  0  0  0  0
    4.8242    2.4817    1.6989 H   0  0  0  0  0  0  0  0  0  0  0  0
    4.6162    0.5374   -0.6616 H   0  0  0  0  0  0  0  0  0  0  0  0
    4.4781    0.0921    1.0406 H   0  0  0  0  0  0  0  0  0  0  0  0
    2.6070    2.0223   -0.4363 H   0  0  0  0  0  0  0  0  0  0  0  0
    2.4694    1.5771    1.2664 H   0  0  0  0  0  0  0  0  0  0  0  0
    2.3080   -0.3669   -1.0869 H   0  0  0  0  0  0  0  0  0  0  0  0
    2.1673   -0.8149    0.6166 H   0  0  0  0  0  0  0  0  0  0  0  0
    0.1595    0.7033    0.8355 H   0  0  0  0  0  0  0  0  0  0  0  0
    0.2839    1.0969   -0.8980 H   0  0  0  0  0  0  0  0  0  0  0  0
   -0.7563   -2.2132   -2.1485 H   0  0  0  0  0  0  0  0  0  0  0  0
    0.1564   -0.7239   -2.5411 H   0  0  0  0  0  0  0  0  0  0  0  0
    0.9485   -2.0612   -1.6293 H   0  0  0  0  0  0  0  0  0  0  0  0
   -0.5391   -1.3908    1.5983 H   0  0  0  0  0  0  0  0  0  0  0  0
    0.6275   -2.3372    0.6584 H   0  0  0  0  0  0  0  0  0  0  0  0
   -1.2376   -3.7797    1.3124 H   0  0  0  0  0  0  0  0  0  0  0  0
   -2.4205   -2.7073    0.5765 H   0  0  0  0  0  0  0  0  0  0  0  0
   -1.2636   -3.5943   -0.4393 H   0  0  0  0  0  0  0  0  0  0  0  0
   -1.8036    0.3689   -1.5671 H   0  0  0  0  0  0  0  0  0  0  0  0
   -2.4941   -1.1836   -1.0745 H   0  0  0  0  0  0  0  0  0  0  0  0
   -2.4757   -0.3301    1.3569 H   0  0  0  0  0  0  0  0  0  0  0  0
   -1.9639    1.2428    0.7538 H   0  0  0  0  0  0  0  0  0  0  0  0
   -4.3947    1.0897    1.2000 H   0  0  0  0  0  0  0  0  0  0  0  0
   -4.5595   -0.1940    0.0070 H   0  0  0  0  0  0  0  0  0  0  0  0
   -3.9003    1.3756   -1.8079 H   0  0  0  0  0  0  0  0  0  0  0  0
   -5.2388    2.0460   -0.8712 H   0  0  0  0  0  0  0  0  0  0  0  0
   -3.5947    2.6526   -0.6123 H   0  0  0  0  0  0  0  0  0  0  0  0
  1  2  1  0
  2  3  1  0
  3  4  1  0
  4  5  1  0
  5  6  1  0
  6  7  1  0
  6  8  1  0
  8  9  1  0
  6 10  1  0
 10 11  1  0
 11 12  1  0
 12 13  1  0
  1 14  1  0
  1 15  1  0
  1 16  1  0
  2 17  1  0
  2 18  1  0
  3 19  1  0
  3 20  1  0
  4 21  1  0
  4 22  1  0
  5 23  1  0
  5 24  1  0
  7 25  1  0
  7 26  1  0
  7 27  1  0
  8 28  1  0
  8 29  1  0
  9 30  1  0
  9 31  1  0
  9 32  1  0
 10 33  1  0
 10 34  1  0
 11 35  1  0
 11 36  1  0
 12 37  1  0
 12 38  1  0
 13 39  1  0
 13 40  1  0
 13 41  1  0
M  CHG  1   6   1
M  END
