050_CCCC[N+](C)(CCC)CCCC
     RDKit          3D

 41 40  0  0  0  0  0  0  0  0999 V2000
    4.0425   -3.0414   -0.3027 C   0  0  0  0  0  0  0  0  0  0  0  0
    3.5801   -1.6328   -0.6407 C   0  0  0  0  0  0  0  0  0  0  0  0
    2.2449   -1.3029    0.0322 C   0  0  0  0  0  0  0  0  0  0  0  0
    1.8134    0.1279   -0.3066 C   0  0  0  0  0  0  0  0  0  0  0  0
    0.3719    0.4975    0.1867 N   0  0  0  0  0  0  0  0  0  0  0  0
    0.2325    0.1145    1.6593 C   0  0  0  0  0  0  0  0  0  0  0  0
    0.2916    2.0481    0.0394 C   0  0  0  0  0  0  0  0  0  0  0  0
   -1.0851    2.6500    0.3083 C   0  0  0  0  0  0  0  0  0  0  0  0
   -1.0299    4.1707    0.2312 C   0  0  0  0  0  0  0  0  0  0  0  0
   -0.6547   -0.2023   -0.7419 C   0  0  0  0  0  0  0  0  0  0  0  0
   -1.9902   -0.5411   -0.0751 C   0  0  0  0  0  0  0  0  0  0  0  0
   -2.9840   -1.0824   -1.1065 C   0  0  0  0  0  0  0  0  0  0  0  0
   -4.3136   -1.4440   -0.4636 C   0  0  0  0  0  0  0  0  0  0  0  0
    3.3130   -3.7850   -0.6391 H   0  0  0  0  0  0  0  0  0  0  0  0
    4.9968   -3.2551   -0.7941 H   0  0  0  0  0  0  0  0  0  0  0  0
    4.1820   -3.1602    0.7765 H   0  0  0  0  0  0  0  0  0  0  0  0
    3.4815   -1.5390   -1.7285 H   0  0  0  0  0  0  0  0  0  0  0  0
    4.3456   -0.9164   -0.3204 H   0  0  0  0  0  0  0  0  0  0  0  0
    2.3683   -1.4112    1.1158 H   0  0  0  0  0  0  0  0  0  0  0  0
    1.4966   -2.0364   -0.2822 H   0  0  0  0  0  0  0  0  0  0  0  0
    1.8234    0.3023   -1.3893 H   0  0  0  0  0  0  0  0  0  0  0  0
    2.5030    0.8371    0.1674 H   0  0  0  0  0  0  0  0  0  0  0  0
    1.0732    0.5484    2.2089 H   0  0  0  0  0  0  0  0  0  0  0  0
    0.2375   -0.9751    1.7433 H   0  0  0  0  0  0  0  0  0  0  0  0
   -0.7072    0.5062    2.0523 H   0  0  0  0  0  0  0  0  0  0  0  0
    0.6068    2.2820   -0.9851 H   0  0  0  0  0  0  0  0  0  0  0  0
    1.0331    2.4653    0.7318 H   0  0  0  0  0  0  0  0  0  0  0  0
   -1.8090    2.3038   -0.4357 H   0  0  0  0  0  0  0  0  0  0  0  0
   -1.4576    2.3718    1.2979 H   0  0  0  0  0  0  0  0  0  0  0  0
   -2.0222    4.5952    0.4133 H   0  0  0  0  0  0  0  0  0  0  0  0
   -0.6949    4.5016   -0.7571 H   0  0  0  0  0  0  0  0  0  0  0  0
   -0.3439    4.5769    0.9814 H   0  0  0  0  0  0  0  0  0  0  0  0
   -0.2024   -1.1306   -1.1016 H   0  0  0  0  0  0  0  0  0  0  0  0
   -0.7886    0.4472   -1.6148 H   0  0  0  0  0  0  0  0  0  0  0  0
   -2.4303    0.3297    0.4170 H   0  0  0  0  0  0  0  0  0  0  0  0
   -1.8389   -1.3052    0.6963 H   0  0  0  0  0  0  0  0  0  0  0  0
   -3.1553   -0.3318   -1.8869 H   0  0  0  0  0  0  0  0  0  0  0  0
   -2.5674   -1.9709   -1.5951 H   0  0  0  0  0  0  0  0  0  0  0  0
   -5.0075   -1.8276   -1.2181 H   0  0  0  0  0  0  0  0  0  0  0  0
   -4.7729   -0.5687    0.0066 H   0  0  0  0  0  0  0  0  0  0  0  0
   -4.1825   -2.2162    0.3012 H   0  0  0  0  0  0  0  0  0  0  0  0
  1  2  1  0
  2  3  1  0
  3  4  1  0
  4  5  1  0
  5  6  1  0
  5  7  1  0
  7  8  1  0
  8  9  1  0
  5 10  1  0
 10 11  1  0
 11 12  1  0
 12 13  1  0
  1 14  1  0
  1 15  1  0
  1 16  1  0
  2 17  1  0
  2 18  1  0
  3 19  1  0
  3 20  1  0
  4 21  1  0
  4 22  1  0
  6 23  1  0
  6 24  1  0
  6 25  1  0
  7 26  1  0
  7 27  1  0
  8 28  1  0
  8 29  1  0
  9 30  1  0
  9 31  1  0
  9 32  1  0
 10 33  1  0
 10 34  1  0
 11 35  1  0
 11 36  1  0
 12 37  1  0
 12 38  1  0
 13 39  1  0
 13 40  1  0
 13 41  1  0
M  CHG  1   5   1
M  END
