051_CCCC[N+](CC)(CC)CCCC
     RDKit          3D

 41 40  0  0  0  0  0  0  0  0999 V2000
    3.8077   -2.7412   -0.4858 C   0  0  0  0  0  0  0  0  0  0  0  0
    3.2396   -1.4272   -0.9985 C   0  0  0  0  0  0  0  0  0  0  0  0
    1.9860   -1.0150   -0.2205 C   0  0  0  0  0  0  0  0  0  0  0  0
    1.4336    0.3086   -0.7631 C   0  0  0  0  0  0  0  0  0  0  0  0
    0.1644    0.8421   -0.0007 N   0  0  0  0  0  0  0  0  0  0  0  0
   -0.1494    2.2538   -0.5722 C   0  0  0  0  0  0  0  0  0  0  0  0
   -0.4855    2.2724   -2.0564 C   0  0  0  0  0  0  0  0  0  0  0  0
    0.5357    0.9438    1.5099 C   0  0  0  0  0  0  0  0  0  0  0  0
   -0.2276    1.9897    2.3090 C   0  0  0  0  0  0  0  0  0  0  0  0
   -0.9885   -0.1710   -0.2353 C   0  0  0  0  0  0  0  0  0  0  0  0
   -2.3475    0.2527    0.3189 C   0  0  0  0  0  0  0  0  0  0  0  0
   -3.4833   -0.6622   -0.1574 C   0  0  0  0  0  0  0  0  0  0  0  0
   -3.3513   -2.0989    0.3248 C   0  0  0  0  0  0  0  0  0  0  0  0
    3.0779   -3.5506   -0.5881 H   0  0  0  0  0  0  0  0  0  0  0  0
    4.7013   -3.0155   -1.0551 H   0  0  0  0  0  0  0  0  0  0  0  0
    4.0881   -2.6622    0.5694 H   0  0  0  0  0  0  0  0  0  0  0  0
    2.9999   -1.5307   -2.0632 H   0  0  0  0  0  0  0  0  0  0  0  0
    4.0047   -0.6469   -0.9116 H   0  0  0  0  0  0  0  0  0  0  0  0
    1.2426   -1.8127   -0.3143 H   0  0  0  0  0  0  0  0  0  0  0  0
    2.2458   -0.9310    0.8393 H   0  0  0  0  0  0  0  0  0  0  0  0
    1.1476    0.1779   -1.8114 H   0  0  0  0  0  0  0  0  0  0  0  0
    2.1912    1.0985   -0.6977 H   0  0  0  0  0  0  0  0  0  0  0  0
    0.7310    2.8769   -0.3760 H   0  0  0  0  0  0  0  0  0  0  0  0
   -0.9920    2.6666   -0.0125 H   0  0  0  0  0  0  0  0  0  0  0  0
   -0.7447    3.2947   -2.3533 H   0  0  0  0  0  0  0  0  0  0  0  0
   -1.3453    1.6418   -2.2965 H   0  0  0  0  0  0  0  0  0  0  0  0
    0.3601    1.9702   -2.6791 H   0  0  0  0  0  0  0  0  0  0  0  0
    1.6010    1.1972    1.5590 H   0  0  0  0  0  0  0  0  0  0  0  0
    0.3917   -0.0505    1.9457 H   0  0  0  0  0  0  0  0  0  0  0  0
   -1.3104    1.8991    2.2249 H   0  0  0  0  0  0  0  0  0  0  0  0
    0.0585    3.0048    2.0159 H   0  0  0  0  0  0  0  0  0  0  0  0
    0.0258    1.8885    3.3701 H   0  0  0  0  0  0  0  0  0  0  0  0
   -0.6846   -1.1078    0.2405 H   0  0  0  0  0  0  0  0  0  0  0  0
   -1.0455   -0.3448   -1.3152 H   0  0  0  0  0  0  0  0  0  0  0  0
   -2.6021    1.2703    0.0107 H   0  0  0  0  0  0  0  0  0  0  0  0
   -2.3299    0.2305    1.4126 H   0  0  0  0  0  0  0  0  0  0  0  0
   -4.4330   -0.2567    0.2116 H   0  0  0  0  0  0  0  0  0  0  0  0
   -3.5375   -0.6487   -1.2523 H   0  0  0  0  0  0  0  0  0  0  0  0
   -2.4775   -2.5903   -0.1132 H   0  0  0  0  0  0  0  0  0  0  0  0
   -4.2355   -2.6751    0.0340 H   0  0  0  0  0  0  0  0  0  0  0  0
   -3.2629   -2.1411    1.4150 H   0  0  0  0  0  0  0  0  0  0  0  0
  1  2  1  0
  2  3  1  0
  3  4  1  0
  4  5  1  0
  5  6  1  0
  6  7  1  0
  5  8  1  0
  8  9  1  0
  5 10  1  0
 10 11  1  0
 11 12  1  0
 12 13  1  0
  1 14  1  0
  1 15  1  0
  1 16  1  0
  2 17  1  0
  2 18  1  0
  3 19  1  0
  3 20  1  0
  4 21  1  0
  4 22  1  0
  6 23  1  0
  6 24  1  0
  7 25  1  0
  7 26  1  0
  7 27  1  0
  8 28  1  0
  8 29  1  0
  9 30  1  0
  9 31  1  0
  9 32  1  0
 10 33  1  0
 10 34  1  0
 11 35  1  0
 11 36  1  0
 12 37  1  0
 12 38  1  0
 13 39  1  0
 13 40  1  0
 13 41  1  0
M  CHG  1   5   1
M  END
