052_CCCC[N+](CC)(CCC)CCC
     RDKit          3D

 41 40  0  0  0  0  0  0  0  0999 V2000
    4.5096    0.8999    0.9805 C   0  0  0  0  0  0  0  0  0  0  0  0
    3.4568   -0.1487    0.6581 C   0  0  0  0  0  0  0  0  0  0  0  0
    2.0973    0.4921    0.3615 C   0  0  0  0  0  0  0  0  0  0  0  0
    1.0573   -0.5872    0.0452 C   0  0  0  0  0  0  0  0  0  0  0  0
   -0.3578   -0.0344   -0.3147 N   0  0  0  0  0  0  0  0  0  0  0  0
   -0.2944    0.9952   -1.4740 C   0  0  0  0  0  0  0  0  0  0  0  0
    0.4068    0.4841   -2.7245 C   0  0  0  0  0  0  0  0  0  0  0  0
   -1.2348   -1.2415   -0.7783 C   0  0  0  0  0  0  0  0  0  0  0  0
   -1.6329   -2.1986    0.3467 C   0  0  0  0  0  0  0  0  0  0  0  0
   -2.4179   -3.3803   -0.2080 C   0  0  0  0  0  0  0  0  0  0  0  0
   -0.9450    0.6671    0.9473 C   0  0  0  0  0  0  0  0  0  0  0  0
   -2.3902    1.1591    0.8016 C   0  0  0  0  0  0  0  0  0  0  0  0
   -2.4859    2.6634    0.5764 C   0  0  0  0  0  0  0  0  0  0  0  0
    4.6480    1.5880    0.1405 H   0  0  0  0  0  0  0  0  0  0  0  0
    5.4711    0.4201    1.1885 H   0  0  0  0  0  0  0  0  0  0  0  0
    4.2242    1.4847    1.8608 H   0  0  0  0  0  0  0  0  0  0  0  0
    3.7878   -0.7358   -0.2065 H   0  0  0  0  0  0  0  0  0  0  0  0
    3.3662   -0.8392    1.5048 H   0  0  0  0  0  0  0  0  0  0  0  0
    1.7941    1.0797    1.2335 H   0  0  0  0  0  0  0  0  0  0  0  0
    2.2156    1.1859   -0.4761 H   0  0  0  0  0  0  0  0  0  0  0  0
    1.3857   -1.2085   -0.7951 H   0  0  0  0  0  0  0  0  0  0  0  0
    0.9322   -1.2385    0.9164 H   0  0  0  0  0  0  0  0  0  0  0  0
    0.2012    1.8932   -1.0916 H   0  0  0  0  0  0  0  0  0  0  0  0
   -1.3267    1.2563   -1.7277 H   0  0  0  0  0  0  0  0  0  0  0  0
   -0.0988   -0.3841   -3.1552 H   0  0  0  0  0  0  0  0  0  0  0  0
    1.4528    0.2249   -2.5438 H   0  0  0  0  0  0  0  0  0  0  0  0
    0.3995    1.2695   -3.4882 H   0  0  0  0  0  0  0  0  0  0  0  0
   -2.1232   -0.8339   -1.2717 H   0  0  0  0  0  0  0  0  0  0  0  0
   -0.6547   -1.7818   -1.5345 H   0  0  0  0  0  0  0  0  0  0  0  0
   -2.2617   -1.6950    1.0871 H   0  0  0  0  0  0  0  0  0  0  0  0
   -0.7530   -2.5856    0.8685 H   0  0  0  0  0  0  0  0  0  0  0  0
   -2.7053   -4.0579    0.6022 H   0  0  0  0  0  0  0  0  0  0  0  0
   -1.8182   -3.9468   -0.9276 H   0  0  0  0  0  0  0  0  0  0  0  0
   -3.3310   -3.0438   -0.7094 H   0  0  0  0  0  0  0  0  0  0  0  0
   -0.8737   -0.0581    1.7651 H   0  0  0  0  0  0  0  0  0  0  0  0
   -0.2833    1.5037    1.1909 H   0  0  0  0  0  0  0  0  0  0  0  0
   -2.9137    0.9429    1.7417 H   0  0  0  0  0  0  0  0  0  0  0  0
   -2.9473    0.6395    0.0194 H   0  0  0  0  0  0  0  0  0  0  0  0
   -2.0041    2.9700   -0.3551 H   0  0  0  0  0  0  0  0  0  0  0  0
   -2.0169    3.2115    1.4001 H   0  0  0  0  0  0  0  0  0  0  0  0
   -3.5361    2.9688    0.5271 H   0  0  0  0  0  0  0  0  0  0  0  0
  1  2  1  0
  2  3  1  0
  3  4  1  0
  4  5  1  0
  5  6  1  0
  6  7  1  0
  5  8  1  0
  8  9  1  0
  9 10  1  0
  5 11  1  0
 11 12  1  0
 12 13  1  0
  1 14  1  0
  1 15  1  0
  1 16  1  0
  2 17  1  0
  2 18  1  0
  3 19  1  0
  3 20  1  0
  4 21  1  0
  4 22  1  0
  6 23  1  0
  6 24  1  0
  7 25  1  0
  7 26  1  0
  7 27  1  0
  8 28  1  0
  8 29  1  0
  9 30  1  0
  9 31  1  0
 10 32  1  0
 10 33  1  0
 10 34  1  0
 11 35  1  0
 11 36  1  0
 12 37  1  0
 12 38  1  0
 13 39  1  0
 13 40  1  0
 13 41  1  0
M  CHG  1   5   1
M  END
