058_CCCCCCC[N+](C)(C)CCCC
     RDKit          3D

 44 43  0  0  0  0  0  0  0  0999 V2000
    6.1224    1.1425   -0.1630 C   0  0  0  0  0  0  0  0  0  0  0  0
    4.7265    0.5394   -0.2028 C   0  0  0  0  0  0  0  0  0  0  0  0
    3.7494    1.3390    0.6599 C   0  0  0  0  0  0  0  0  0  0  0  0
    2.3552    0.7091    0.7416 C   0  0  0  0  0  0  0  0  0  0  0  0
    1.6209    0.6891   -0.6019 C   0  0  0  0  0  0  0  0  0  0  0  0
    0.1498    0.2658   -0.4835 C   0  0  0  0  0  0  0  0  0  0  0  0
   -0.0080   -1.1712    0.0073 C   0  0  0  0  0  0  0  0  0  0  0  0
   -1.4554   -1.7154   -0.0521 N   0  0  0  0  0  0  0  0  0  0  0  0
   -1.4043   -3.1225    0.5867 C   0  0  0  0  0  0  0  0  0  0  0  0
   -1.9137   -1.9113   -1.4949 C   0  0  0  0  0  0  0  0  0  0  0  0
   -2.4423   -0.8780    0.7941 C   0  0  0  0  0  0  0  0  0  0  0  0
   -3.1513    0.2419    0.0293 C   0  0  0  0  0  0  0  0  0  0  0  0
   -3.9805    1.1040    0.9851 C   0  0  0  0  0  0  0  0  0  0  0  0
   -4.7112    2.2129    0.2447 C   0  0  0  0  0  0  0  0  0  0  0  0
    6.1156    2.1717   -0.5359 H   0  0  0  0  0  0  0  0  0  0  0  0
    6.5187    1.1488    0.8574 H   0  0  0  0  0  0  0  0  0  0  0  0
    6.8052    0.5589   -0.7885 H   0  0  0  0  0  0  0  0  0  0  0  0
    4.7731   -0.4974    0.1497 H   0  0  0  0  0  0  0  0  0  0  0  0
    4.3851    0.5160   -1.2431 H   0  0  0  0  0  0  0  0  0  0  0  0
    4.1499    1.4151    1.6785 H   0  0  0  0  0  0  0  0  0  0  0  0
    3.6685    2.3633    0.2762 H   0  0  0  0  0  0  0  0  0  0  0  0
    2.4449   -0.3086    1.1384 H   0  0  0  0  0  0  0  0  0  0  0  0
    1.7633    1.2822    1.4658 H   0  0  0  0  0  0  0  0  0  0  0  0
    1.6529    1.6925   -1.0440 H   0  0  0  0  0  0  0  0  0  0  0  0
    2.1306    0.0168   -1.3014 H   0  0  0  0  0  0  0  0  0  0  0  0
   -0.3528    0.9567    0.2017 H   0  0  0  0  0  0  0  0  0  0  0  0
   -0.3054    0.3894   -1.4707 H   0  0  0  0  0  0  0  0  0  0  0  0
    0.3087   -1.2521    1.0535 H   0  0  0  0  0  0  0  0  0  0  0  0
    0.6068   -1.8523   -0.5933 H   0  0  0  0  0  0  0  0  0  0  0  0
   -2.3978   -3.5748    0.5085 H   0  0  0  0  0  0  0  0  0  0  0  0
   -1.1129   -3.0127    1.6356 H   0  0  0  0  0  0  0  0  0  0  0  0
   -0.6699   -3.7242    0.0427 H   0  0  0  0  0  0  0  0  0  0  0  0
   -1.2086   -2.5833   -1.9936 H   0  0  0  0  0  0  0  0  0  0  0  0
   -2.9138   -2.3548   -1.4805 H   0  0  0  0  0  0  0  0  0  0  0  0
   -1.9317   -0.9485   -2.0083 H   0  0  0  0  0  0  0  0  0  0  0  0
   -1.8789   -0.4940    1.6523 H   0  0  0  0  0  0  0  0  0  0  0  0
   -3.2037   -1.5694    1.1759 H   0  0  0  0  0  0  0  0  0  0  0  0
   -3.8233   -0.1883   -0.7228 H   0  0  0  0  0  0  0  0  0  0  0  0
   -2.4444    0.8830   -0.5020 H   0  0  0  0  0  0  0  0  0  0  0  0
   -3.3277    1.5495    1.7448 H   0  0  0  0  0  0  0  0  0  0  0  0
   -4.7124    0.4795    1.5106 H   0  0  0  0  0  0  0  0  0  0  0  0
   -5.2961    2.8157    0.9464 H   0  0  0  0  0  0  0  0  0  0  0  0
   -4.0048    2.8755   -0.2656 H   0  0  0  0  0  0  0  0  0  0  0  0
   -5.3968    1.8004   -0.5023 H   0  0  0  0  0  0  0  0  0  0  0  0
  1  2  1  0
  2  3  1  0
  3  4  1  0
  4  5  1  0
  5  6  1  0
  6  7  1  0
  7  8  1  0
  8  9  1  0
  8 10  1  0
  8 11  1  0
 11 12  1  0
 12 13  1  0
 13 14  1  0
  1 15  1  0
  1 16  1  0
  1 17  1  0
  2 18  1  0
  2 19  1  0
  3 20  1  0
  3 21  1  0
  4 22  1  0
  4 23  1  0
  5 24  1  0
  5 25  1  0
  6 26  1  0
  6 27  1  0
  7 28  1  0
  7 29  1  0
  9 30  1  0
  9 31  1  0
  9 32  1  0
 10 33  1  0
 10 34  1  0
 10 35  1  0
 11 36  1  0
 11 37  1  0
 12 38  1  0
 12 39  1  0
 13 40  1  0
 13 41  1  0
 14 42  1  0
 14 43  1  0
 14 44  1  0
M  CHG  1   8   1
M  END
