060_CCCCCCC[N+](CC)(CC)CC
     RDKit          3D

 44 43  0  0  0  0  0  0  0  0999 V2000
    6.1337    0.7556   -0.3726 C   0  0  0  0  0  0  0  0  0  0  0  0
    4.6718    0.3665   -0.5317 C   0  0  0  0  0  0  0  0  0  0  0  0
    4.1897   -0.4813    0.6460 C   0  0  0  0  0  0  0  0  0  0  0  0
    2.7569   -0.9955    0.4798 C   0  0  0  0  0  0  0  0  0  0  0  0
    1.7066    0.1178    0.4854 C   0  0  0  0  0  0  0  0  0  0  0  0
    0.2861   -0.4587    0.4299 C   0  0  0  0  0  0  0  0  0  0  0  0
   -0.7470    0.6649    0.4490 C   0  0  0  0  0  0  0  0  0  0  0  0
   -2.2264    0.1986    0.2616 N   0  0  0  0  0  0  0  0  0  0  0  0
   -2.6392   -0.7196    1.4569 C   0  0  0  0  0  0  0  0  0  0  0  0
   -2.4812   -2.2126    1.2123 C   0  0  0  0  0  0  0  0  0  0  0  0
   -2.4467   -0.4889   -1.1052 C   0  0  0  0  0  0  0  0  0  0  0  0
   -2.0794    0.3759   -2.3024 C   0  0  0  0  0  0  0  0  0  0  0  0
   -3.0742    1.5134    0.3758 C   0  0  0  0  0  0  0  0  0  0  0  0
   -4.5388    1.3559   -0.0118 C   0  0  0  0  0  0  0  0  0  0  0  0
    6.7735   -0.1314   -0.3265 H   0  0  0  0  0  0  0  0  0  0  0  0
    6.2871    1.3385    0.5412 H   0  0  0  0  0  0  0  0  0  0  0  0
    6.4584    1.3642   -1.2224 H   0  0  0  0  0  0  0  0  0  0  0  0
    4.5481   -0.1904   -1.4676 H   0  0  0  0  0  0  0  0  0  0  0  0
    4.0740    1.2804   -0.6137 H   0  0  0  0  0  0  0  0  0  0  0  0
    4.2678    0.0962    1.5752 H   0  0  0  0  0  0  0  0  0  0  0  0
    4.8525   -1.3485    0.7575 H   0  0  0  0  0  0  0  0  0  0  0  0
    2.6791   -1.5738   -0.4489 H   0  0  0  0  0  0  0  0  0  0  0  0
    2.5463   -1.6901    1.3025 H   0  0  0  0  0  0  0  0  0  0  0  0
    1.8204    0.7267    1.3904 H   0  0  0  0  0  0  0  0  0  0  0  0
    1.8571    0.7798   -0.3746 H   0  0  0  0  0  0  0  0  0  0  0  0
    0.1924   -1.0694   -0.4727 H   0  0  0  0  0  0  0  0  0  0  0  0
    0.1485   -1.1112    1.2974 H   0  0  0  0  0  0  0  0  0  0  0  0
   -0.7058    1.1954    1.4088 H   0  0  0  0  0  0  0  0  0  0  0  0
   -0.5377    1.3973   -0.3379 H   0  0  0  0  0  0  0  0  0  0  0  0
   -3.6894   -0.5239    1.6858 H   0  0  0  0  0  0  0  0  0  0  0  0
   -2.0540   -0.4001    2.3264 H   0  0  0  0  0  0  0  0  0  0  0  0
   -3.1940   -2.5722    0.4635 H   0  0  0  0  0  0  0  0  0  0  0  0
   -1.4763   -2.4967    0.8966 H   0  0  0  0  0  0  0  0  0  0  0  0
   -2.6966   -2.7560    2.1389 H   0  0  0  0  0  0  0  0  0  0  0  0
   -1.8400   -1.3977   -1.1289 H   0  0  0  0  0  0  0  0  0  0  0  0
   -3.4979   -0.7909   -1.1523 H   0  0  0  0  0  0  0  0  0  0  0  0
   -2.6267    1.3209   -2.3276 H   0  0  0  0  0  0  0  0  0  0  0  0
   -2.3228   -0.1626   -3.2249 H   0  0  0  0  0  0  0  0  0  0  0  0
   -1.0081    0.5924   -2.3359 H   0  0  0  0  0  0  0  0  0  0  0  0
   -2.9884    1.8491    1.4162 H   0  0  0  0  0  0  0  0  0  0  0  0
   -2.6008    2.2673   -0.2627 H   0  0  0  0  0  0  0  0  0  0  0  0
   -5.0475    0.5627    0.5402 H   0  0  0  0  0  0  0  0  0  0  0  0
   -5.0695    2.2905    0.2005 H   0  0  0  0  0  0  0  0  0  0  0  0
   -4.6616    1.1615   -1.0807 H   0  0  0  0  0  0  0  0  0  0  0  0
  1  2  1  0
  2  3  1  0
  3  4  1  0
  4  5  1  0
  5  6  1  0
  6  7  1  0
  7  8  1  0
  8  9  1  0
  9 10  1  0
  8 11  1  0
 11 12  1  0
  8 13  1  0
 13 14  1  0
  1 15  1  0
  1 16  1  0
  1 17  1  0
  2 18  1  0
  2 19  1  0
  3 20  1  0
  3 21  1  0
  4 22  1  0
  4 23  1  0
  5 24  1  0
  5 25  1  0
  6 26  1  0
  6 27  1  0
  7 28  1  0
  7 29  1  0
  9 30  1  0
  9 31  1  0
 10 32  1  0
 10 33  1  0
 10 34  1  0
 11 35  1  0
 11 36  1  0
 12 37  1  0
 12 38  1  0
 12 39  1  0
 13 40  1  0
 13 41  1  0
 14 42  1  0
 14 43  1  0
 14 44  1  0
M  CHG  1   8   1
M  END
