062_CCCCCC[N+](C)(CC)CCCC
     RDKit          3D

 44 43  0  0  0  0  0  0  0  0999 V2000
    5.6977   -1.1933    0.6478 C   0  0  0  0  0  0  0  0  0  0  0  0
    4.6853   -1.2047   -0.4865 C   0  0  0  0  0  0  0  0  0  0  0  0
    3.2838   -0.8459    0.0095 C   0  0  0  0  0  0  0  0  0  0  0  0
    2.2713   -0.8563   -1.1383 C   0  0  0  0  0  0  0  0  0  0  0  0
    0.8256   -0.6194   -0.6801 C   0  0  0  0  0  0  0  0  0  0  0  0
    0.5983    0.8017   -0.1672 C   0  0  0  0  0  0  0  0  0  0  0  0
   -0.8536    1.0971    0.3332 N   0  0  0  0  0  0  0  0  0  0  0  0
   -1.1143    0.3265    1.6240 C   0  0  0  0  0  0  0  0  0  0  0  0
   -0.8500    2.6324    0.6508 C   0  0  0  0  0  0  0  0  0  0  0  0
   -2.0658    3.1146    1.4307 C   0  0  0  0  0  0  0  0  0  0  0  0
   -1.8930    0.8415   -0.7897 C   0  0  0  0  0  0  0  0  0  0  0  0
   -2.4521   -0.5837   -0.8773 C   0  0  0  0  0  0  0  0  0  0  0  0
   -3.8034   -0.7434   -0.1728 C   0  0  0  0  0  0  0  0  0  0  0  0
   -4.3423   -2.1582   -0.3225 C   0  0  0  0  0  0  0  0  0  0  0  0
    5.4274   -1.9184    1.4221 H   0  0  0  0  0  0  0  0  0  0  0  0
    5.7577   -0.2028    1.1102 H   0  0  0  0  0  0  0  0  0  0  0  0
    6.6919   -1.4530    0.2712 H   0  0  0  0  0  0  0  0  0  0  0  0
    5.0009   -0.4924   -1.2577 H   0  0  0  0  0  0  0  0  0  0  0  0
    4.6745   -2.1991   -0.9478 H   0  0  0  0  0  0  0  0  0  0  0  0
    2.9733   -1.5613    0.7805 H   0  0  0  0  0  0  0  0  0  0  0  0
    3.3136    0.1440    0.4776 H   0  0  0  0  0  0  0  0  0  0  0  0
    2.5492   -0.1041   -1.8867 H   0  0  0  0  0  0  0  0  0  0  0  0
    2.3130   -1.8311   -1.6404 H   0  0  0  0  0  0  0  0  0  0  0  0
    0.5733   -1.3628    0.0820 H   0  0  0  0  0  0  0  0  0  0  0  0
    0.1859   -0.8049   -1.5489 H   0  0  0  0  0  0  0  0  0  0  0  0
    0.8067    1.5246   -0.9655 H   0  0  0  0  0  0  0  0  0  0  0  0
    1.2586    1.0216    0.6784 H   0  0  0  0  0  0  0  0  0  0  0  0
   -2.1286    0.5382    1.9659 H   0  0  0  0  0  0  0  0  0  0  0  0
   -0.9988   -0.7434    1.4473 H   0  0  0  0  0  0  0  0  0  0  0  0
   -0.3871    0.6557    2.3726 H   0  0  0  0  0  0  0  0  0  0  0  0
    0.0563    2.8396    1.2321 H   0  0  0  0  0  0  0  0  0  0  0  0
   -0.7752    3.1516   -0.3117 H   0  0  0  0  0  0  0  0  0  0  0  0
   -3.0141    2.8382    0.9650 H   0  0  0  0  0  0  0  0  0  0  0  0
   -2.0411    4.2077    1.4985 H   0  0  0  0  0  0  0  0  0  0  0  0
   -2.0613    2.7362    2.4574 H   0  0  0  0  0  0  0  0  0  0  0  0
   -2.7133    1.5523   -0.6624 H   0  0  0  0  0  0  0  0  0  0  0  0
   -1.3903    1.1062   -1.7277 H   0  0  0  0  0  0  0  0  0  0  0  0
   -2.6104   -0.8076   -1.9407 H   0  0  0  0  0  0  0  0  0  0  0  0
   -1.7524   -1.3394   -0.5142 H   0  0  0  0  0  0  0  0  0  0  0  0
   -3.7192   -0.5111    0.8920 H   0  0  0  0  0  0  0  0  0  0  0  0
   -4.5282   -0.0400   -0.5993 H   0  0  0  0  0  0  0  0  0  0  0  0
   -3.6582   -2.8872    0.1236 H   0  0  0  0  0  0  0  0  0  0  0  0
   -4.4809   -2.4164   -1.3772 H   0  0  0  0  0  0  0  0  0  0  0  0
   -5.3107   -2.2498    0.1794 H   0  0  0  0  0  0  0  0  0  0  0  0
  1  2  1  0
  2  3  1  0
  3  4  1  0
  4  5  1  0
  5  6  1  0
  6  7  1  0
  7  8  1  0
  7  9  1  0
  9 10  1  0
  7 11  1  0
 11 12  1  0
 12 13  1  0
 13 14  1  0
  1 15  1  0
  1 16  1  0
  1 17  1  0
  2 18  1  0
  2 19  1  0
  3 20  1  0
  3 21  1  0
  4 22  1  0
  4 23  1  0
  5 24  1  0
  5 25  1  0
  6 26  1  0
  6 27  1  0
  8 28  1  0
  8 29  1  0
  8 30  1  0
  9 31  1  0
  9 32  1  0
 10 33  1  0
 10 34  1  0
 10 35  1  0
 11 36  1  0
 11 37  1  0
 12 38  1  0
 12 39  1  0
 13 40  1  0
 13 41  1  0
 14 42  1  0
 14 43  1  0
 14 44  1  0
M  CHG  1   7   1
M  END
