063_CCCCCC[N+](C)(CCC)CCC
     RDKit          3D

 44 43  0  0  0  0  0  0  0  0999 V2000
    5.0060   -0.8786    2.0308 C   0  0  0  0  0  0  0  0  0  0  0  0
    4.9995   -0.6869    0.5145 C   0  0  0  0  0  0  0  0  0  0  0  0
    3.8243    0.1758    0.0293 C   0  0  0  0  0  0  0  0  0  0  0  0
    2.4734   -0.5457    0.1495 C   0  0  0  0  0  0  0  0  0  0  0  0
    1.3418    0.2963   -0.4565 C   0  0  0  0  0  0  0  0  0  0  0  0
   -0.0175   -0.4359   -0.3192 C   0  0  0  0  0  0  0  0  0  0  0  0
   -1.2109    0.2831   -0.8828 N   0  0  0  0  0  0  0  0  0  0  0  0
   -0.9472    0.6140   -2.3129 C   0  0  0  0  0  0  0  0  0  0  0  0
   -1.4600    1.5479   -0.1085 C   0  0  0  0  0  0  0  0  0  0  0  0
   -2.7347    2.3512   -0.4956 C   0  0  0  0  0  0  0  0  0  0  0  0
   -3.8608    2.2109    0.5281 C   0  0  0  0  0  0  0  0  0  0  0  0
   -2.3895   -0.6497   -0.8525 C   0  0  0  0  0  0  0  0  0  0  0  0
   -2.7864   -1.2087    0.5441 C   0  0  0  0  0  0  0  0  0  0  0  0
   -2.3469   -2.6598    0.7507 C   0  0  0  0  0  0  0  0  0  0  0  0
    4.9724    0.1041    2.5475 H   0  0  0  0  0  0  0  0  0  0  0  0
    5.9370   -1.4037    2.3318 H   0  0  0  0  0  0  0  0  0  0  0  0
    4.1426   -1.4964    2.3531 H   0  0  0  0  0  0  0  0  0  0  0  0
    4.9790   -1.6790    0.0133 H   0  0  0  0  0  0  0  0  0  0  0  0
    5.9471   -0.1837    0.2238 H   0  0  0  0  0  0  0  0  0  0  0  0
    4.0034    0.4280   -1.0390 H   0  0  0  0  0  0  0  0  0  0  0  0
    3.7969    1.1297    0.6005 H   0  0  0  0  0  0  0  0  0  0  0  0
    2.2469   -0.7354    1.2205 H   0  0  0  0  0  0  0  0  0  0  0  0
    2.5284   -1.5224   -0.3800 H   0  0  0  0  0  0  0  0  0  0  0  0
    1.5814    0.4743   -1.5254 H   0  0  0  0  0  0  0  0  0  0  0  0
    1.3163    1.2686    0.0760 H   0  0  0  0  0  0  0  0  0  0  0  0
   -0.1664   -0.6320    0.7650 H   0  0  0  0  0  0  0  0  0  0  0  0
    0.0907   -1.4289   -0.8138 H   0  0  0  0  0  0  0  0  0  0  0  0
   -0.4987   -0.2519   -2.8502 H   0  0  0  0  0  0  0  0  0  0  0  0
   -0.2596    1.4812   -2.4189 H   0  0  0  0  0  0  0  0  0  0  0  0
   -1.8771    0.8739   -2.8622 H   0  0  0  0  0  0  0  0  0  0  0  0
   -1.4498    1.3567    0.9859 H   0  0  0  0  0  0  0  0  0  0  0  0
   -0.6112    2.2482   -0.2623 H   0  0  0  0  0  0  0  0  0  0  0  0
   -2.4697    3.4308   -0.5394 H   0  0  0  0  0  0  0  0  0  0  0  0
   -3.1208    2.0956   -1.5005 H   0  0  0  0  0  0  0  0  0  0  0  0
   -3.5053    2.5007    1.5398 H   0  0  0  0  0  0  0  0  0  0  0  0
   -4.2451    1.1739    0.5566 H   0  0  0  0  0  0  0  0  0  0  0  0
   -4.7004    2.8811    0.2471 H   0  0  0  0  0  0  0  0  0  0  0  0
   -3.2867   -0.1541   -1.2811 H   0  0  0  0  0  0  0  0  0  0  0  0
   -2.2101   -1.5066   -1.5434 H   0  0  0  0  0  0  0  0  0  0  0  0
   -3.8950   -1.1948    0.6271 H   0  0  0  0  0  0  0  0  0  0  0  0
   -2.4045   -0.5900    1.3783 H   0  0  0  0  0  0  0  0  0  0  0  0
   -2.8002   -3.3136   -0.0246 H   0  0  0  0  0  0  0  0  0  0  0  0
   -1.2440   -2.7575    0.7080 H   0  0  0  0  0  0  0  0  0  0  0  0
   -2.6887   -3.0108    1.7472 H   0  0  0  0  0  0  0  0  0  0  0  0
  1  2  1  0
  2  3  1  0
  3  4  1  0
  4  5  1  0
  5  6  1  0
  6  7  1  0
  7  8  1  0
  7  9  1  0
  9 10  1  0
 10 11  1  0
  7 12  1  0
 12 13  1  0
 13 14  1  0
  1 15  1  0
  1 16  1  0
  1 17  1  0
  2 18  1  0
  2 19  1  0
  3 20  1  0
  3 21  1  0
  4 22  1  0
  4 23  1  0
  5 24  1  0
  5 25  1  0
  6 26  1  0
  6 27  1  0
  8 28  1  0
  8 29  1  0
  8 30  1  0
  9 31  1  0
  9 32  1  0
 10 33  1  0
 10 34  1  0
 11 35  1  0
 11 36  1  0
 11 37  1  0
 12 38  1  0
 12 39  1  0
 13 40  1  0
 13 41  1  0
 14 42  1  0
 14 43  1  0
 14 44  1  0
M  CHG  1   7   1
M  END
