066_CCCCC[N+](C)(CCC)CCCC
     RDKit          3D

 44 43  0  0  0  0  0  0  0  0999 V2000
    5.0872   -0.6887    0.7077 C   0  0  0  0  0  0  0  0  0  0  0  0
    3.7848   -0.2144    0.0809 C   0  0  0  0  0  0  0  0  0  0  0  0
    2.7117   -1.3025    0.1360 C   0  0  0  0  0  0  0  0  0  0  0  0
    1.4150   -0.9208   -0.5902 C   0  0  0  0  0  0  0  0  0  0  0  0
    0.6794    0.2374    0.0905 C   0  0  0  0  0  0  0  0  0  0  0  0
   -0.6701    0.6059   -0.5786 N   0  0  0  0  0  0  0  0  0  0  0  0
   -0.4273    1.1266   -1.9997 C   0  0  0  0  0  0  0  0  0  0  0  0
   -1.3896    1.6931    0.2747 C   0  0  0  0  0  0  0  0  0  0  0  0
   -0.7141    3.0701    0.2884 C   0  0  0  0  0  0  0  0  0  0  0  0
   -1.3312    4.0583   -0.6936 C   0  0  0  0  0  0  0  0  0  0  0  0
   -1.6262   -0.6149   -0.7154 C   0  0  0  0  0  0  0  0  0  0  0  0
   -1.9364   -1.3129    0.6102 C   0  0  0  0  0  0  0  0  0  0  0  0
   -2.8546   -2.5163    0.3788 C   0  0  0  0  0  0  0  0  0  0  0  0
   -3.1807   -3.2280    1.6823 C   0  0  0  0  0  0  0  0  0  0  0  0
    5.8404    0.1042    0.6623 H   0  0  0  0  0  0  0  0  0  0  0  0
    5.4821   -1.5623    0.1794 H   0  0  0  0  0  0  0  0  0  0  0  0
    4.9410   -0.9588    1.7584 H   0  0  0  0  0  0  0  0  0  0  0  0
    3.9712    0.0736   -0.9601 H   0  0  0  0  0  0  0  0  0  0  0  0
    3.4480    0.6817    0.6127 H   0  0  0  0  0  0  0  0  0  0  0  0
    3.1054   -2.2156   -0.3281 H   0  0  0  0  0  0  0  0  0  0  0  0
    2.4884   -1.5516    1.1807 H   0  0  0  0  0  0  0  0  0  0  0  0
    1.6536   -0.6721   -1.6296 H   0  0  0  0  0  0  0  0  0  0  0  0
    0.7850   -1.8154   -0.6098 H   0  0  0  0  0  0  0  0  0  0  0  0
    1.2983    1.1375    0.0624 H   0  0  0  0  0  0  0  0  0  0  0  0
    0.4694    0.0047    1.1398 H   0  0  0  0  0  0  0  0  0  0  0  0
   -1.3736    1.5126   -2.3893 H   0  0  0  0  0  0  0  0  0  0  0  0
   -0.0859    0.2992   -2.6275 H   0  0  0  0  0  0  0  0  0  0  0  0
    0.3371    1.9065   -1.9680 H   0  0  0  0  0  0  0  0  0  0  0  0
   -2.4207    1.7623   -0.0907 H   0  0  0  0  0  0  0  0  0  0  0  0
   -1.4123    1.3055    1.2986 H   0  0  0  0  0  0  0  0  0  0  0  0
   -0.8518    3.4950    1.2912 H   0  0  0  0  0  0  0  0  0  0  0  0
    0.3655    3.0198    0.1293 H   0  0  0  0  0  0  0  0  0  0  0  0
   -2.4057    4.1681   -0.5148 H   0  0  0  0  0  0  0  0  0  0  0  0
   -1.1861    3.7539   -1.7322 H   0  0  0  0  0  0  0  0  0  0  0  0
   -0.8701    5.0438   -0.5702 H   0  0  0  0  0  0  0  0  0  0  0  0
   -1.1684   -1.3114   -1.4262 H   0  0  0  0  0  0  0  0  0  0  0  0
   -2.5492   -0.2386   -1.1741 H   0  0  0  0  0  0  0  0  0  0  0  0
   -1.0180   -1.6614    1.0931 H   0  0  0  0  0  0  0  0  0  0  0  0
   -2.4311   -0.6249    1.3034 H   0  0  0  0  0  0  0  0  0  0  0  0
   -2.3742   -3.2245   -0.3064 H   0  0  0  0  0  0  0  0  0  0  0  0
   -3.7872   -2.1875   -0.0944 H   0  0  0  0  0  0  0  0  0  0  0  0
   -3.8368   -4.0834    1.4932 H   0  0  0  0  0  0  0  0  0  0  0  0
   -3.6912   -2.5558    2.3793 H   0  0  0  0  0  0  0  0  0  0  0  0
   -2.2708   -3.5980    2.1655 H   0  0  0  0  0  0  0  0  0  0  0  0
  1  2  1  0
  2  3  1  0
  3  4  1  0
  4  5  1  0
  5  6  1  0
  6  7  1  0
  6  8  1  0
  8  9  1  0
  9 10  1  0
  6 11  1  0
 11 12  1  0
 12 13  1  0
 13 14  1  0
  1 15  1  0
  1 16  1  0
  1 17  1  0
  2 18  1  0
  2 19  1  0
  3 20  1  0
  3 21  1  0
  4 22  1  0
  4 23  1  0
  5 24  1  0
  5 25  1  0
  7 26  1  0
  7 27  1  0
  7 28  1  0
  8 29  1  0
  8 30  1  0
  9 31  1  0
  9 32  1  0
 10 33  1  0
 10 34  1  0
 10 35  1  0
 11 36  1  0
 11 37  1  0
 12 38  1  0
 12 39  1  0
 13 40  1  0
 13 41  1  0
 14 42  1  0
 14 43  1  0
 14 44  1  0
M  CHG  1   6   1
M  END
