067_CCCCC[N+](CC)(CC)CCCC
     RDKit          3D

 44 43  0  0  0  0  0  0  0  0999 V2000
    5.3101    1.4180   -0.5050 C   0  0  0  0  0  0  0  0  0  0  0  0
    3.8171    1.2710   -0.2534 C   0  0  0  0  0  0  0  0  0  0  0  0
    3.1438    0.4551   -1.3577 C   0  0  0  0  0  0  0  0  0  0  0  0
    1.6185    0.3715   -1.2111 C   0  0  0  0  0  0  0  0  0  0  0  0
    1.1937   -0.3828    0.0524 C   0  0  0  0  0  0  0  0  0  0  0  0
   -0.3514   -0.6721    0.1469 N   0  0  0  0  0  0  0  0  0  0  0  0
   -0.5441   -1.3807    1.5236 C   0  0  0  0  0  0  0  0  0  0  0  0
   -1.7824   -2.2562    1.6555 C   0  0  0  0  0  0  0  0  0  0  0  0
   -0.8360   -1.5256   -1.0468 C   0  0  0  0  0  0  0  0  0  0  0  0
   -0.0157   -2.7879   -1.2681 C   0  0  0  0  0  0  0  0  0  0  0  0
   -1.0657    0.7144    0.1262 C   0  0  0  0  0  0  0  0  0  0  0  0
   -2.5562    0.6829    0.4524 C   0  0  0  0  0  0  0  0  0  0  0  0
   -3.1842    2.0630    0.2317 C   0  0  0  0  0  0  0  0  0  0  0  0
   -4.6667    2.0611    0.5697 C   0  0  0  0  0  0  0  0  0  0  0  0
    5.4999    1.9330   -1.4521 H   0  0  0  0  0  0  0  0  0  0  0  0
    5.7997    0.4396   -0.5411 H   0  0  0  0  0  0  0  0  0  0  0  0
    5.7739    2.0009    0.2969 H   0  0  0  0  0  0  0  0  0  0  0  0
    3.6723    0.7884    0.7191 H   0  0  0  0  0  0  0  0  0  0  0  0
    3.3628    2.2667   -0.1954 H   0  0  0  0  0  0  0  0  0  0  0  0
    3.3687    0.9129   -2.3292 H   0  0  0  0  0  0  0  0  0  0  0  0
    3.5661   -0.5569   -1.3814 H   0  0  0  0  0  0  0  0  0  0  0  0
    1.2163    1.3901   -1.2068 H   0  0  0  0  0  0  0  0  0  0  0  0
    1.2327   -0.1229   -2.1075 H   0  0  0  0  0  0  0  0  0  0  0  0
    1.4452    0.1956    0.9492 H   0  0  0  0  0  0  0  0  0  0  0  0
    1.7080   -1.3474    0.1208 H   0  0  0  0  0  0  0  0  0  0  0  0
    0.3360   -2.0132    1.6879 H   0  0  0  0  0  0  0  0  0  0  0  0
   -0.5349   -0.5944    2.2869 H   0  0  0  0  0  0  0  0  0  0  0  0
   -1.7162   -3.1525    1.0327 H   0  0  0  0  0  0  0  0  0  0  0  0
   -1.8662   -2.6035    2.6914 H   0  0  0  0  0  0  0  0  0  0  0  0
   -2.7138   -1.7462    1.4123 H   0  0  0  0  0  0  0  0  0  0  0  0
   -1.8845   -1.7803   -0.8713 H   0  0  0  0  0  0  0  0  0  0  0  0
   -0.8057   -0.8944   -1.9410 H   0  0  0  0  0  0  0  0  0  0  0  0
    0.0960   -3.3844   -0.3595 H   0  0  0  0  0  0  0  0  0  0  0  0
    0.9824   -2.5603   -1.6535 H   0  0  0  0  0  0  0  0  0  0  0  0
   -0.5082   -3.4155   -2.0185 H   0  0  0  0  0  0  0  0  0  0  0  0
   -0.5396    1.3531    0.8458 H   0  0  0  0  0  0  0  0  0  0  0  0
   -0.9220    1.1271   -0.8778 H   0  0  0  0  0  0  0  0  0  0  0  0
   -2.7047    0.4079    1.5014 H   0  0  0  0  0  0  0  0  0  0  0  0
   -3.0807   -0.0457   -0.1731 H   0  0  0  0  0  0  0  0  0  0  0  0
   -2.6741    2.8081    0.8535 H   0  0  0  0  0  0  0  0  0  0  0  0
   -3.0550    2.3683   -0.8133 H   0  0  0  0  0  0  0  0  0  0  0  0
   -5.0944    3.0549    0.4044 H   0  0  0  0  0  0  0  0  0  0  0  0
   -4.8297    1.7912    1.6180 H   0  0  0  0  0  0  0  0  0  0  0  0
   -5.2111    1.3481   -0.0576 H   0  0  0  0  0  0  0  0  0  0  0  0
  1  2  1  0
  2  3  1  0
  3  4  1  0
  4  5  1  0
  5  6  1  0
  6  7  1  0
  7  8  1  0
  6  9  1  0
  9 10  1  0
  6 11  1  0
 11 12  1  0
 12 13  1  0
 13 14  1  0
  1 15  1  0
  1 16  1  0
  1 17  1  0
  2 18  1  0
  2 19  1  0
  3 20  1  0
  3 21  1  0
  4 22  1  0
  4 23  1  0
  5 24  1  0
  5 25  1  0
  7 26  1  0
  7 27  1  0
  8 28  1  0
  8 29  1  0
  8 30  1  0
  9 31  1  0
  9 32  1  0
 10 33  1  0
 10 34  1  0
 10 35  1  0
 11 36  1  0
 11 37  1  0
 12 38  1  0
 12 39  1  0
 13 40  1  0
 13 41  1  0
 14 42  1  0
 14 43  1  0
 14 44  1  0
M  CHG  1   6   1
M  END
