075_CCCCCCCCC[N+](C)(CC)CC
     RDKit          3D

 47 46  0  0  0  0  0  0  0  0999 V2000
    6.8989   -0.7843   -1.2504 C   0  0  0  0  0  0  0  0  0  0  0  0
    6.6808    0.1997   -0.1114 C   0  0  0  0  0  0  0  0  0  0  0  0
    5.3458    0.9429   -0.1929 C   0  0  0  0  0  0  0  0  0  0  0  0
    4.1310    0.0282   -0.0214 C   0  0  0  0  0  0  0  0  0  0  0  0
    2.8295    0.8333   -0.0043 C   0  0  0  0  0  0  0  0  0  0  0  0
    1.6132   -0.0789    0.1636 C   0  0  0  0  0  0  0  0  0  0  0  0
    0.3125    0.7260    0.1811 C   0  0  0  0  0  0  0  0  0  0  0  0
   -0.9072   -0.1873    0.3489 C   0  0  0  0  0  0  0  0  0  0  0  0
   -2.1947    0.6393    0.3596 C   0  0  0  0  0  0  0  0  0  0  0  0
   -3.4953   -0.1943    0.5481 N   0  0  0  0  0  0  0  0  0  0  0  0
   -3.4873   -0.8183    1.9522 C   0  0  0  0  0  0  0  0  0  0  0  0
   -3.6225   -1.3354   -0.4805 C   0  0  0  0  0  0  0  0  0  0  0  0
   -3.6358   -0.8579   -1.9229 C   0  0  0  0  0  0  0  0  0  0  0  0
   -4.6688    0.8210    0.4576 C   0  0  0  0  0  0  0  0  0  0  0  0
   -6.0521    0.1966    0.5507 C   0  0  0  0  0  0  0  0  0  0  0  0
    7.9059   -1.2097   -1.1911 H   0  0  0  0  0  0  0  0  0  0  0  0
    6.1869   -1.6135   -1.2064 H   0  0  0  0  0  0  0  0  0  0  0  0
    6.7967   -0.2903   -2.2218 H   0  0  0  0  0  0  0  0  0  0  0  0
    7.4908    0.9386   -0.1303 H   0  0  0  0  0  0  0  0  0  0  0  0
    6.7563   -0.3283    0.8463 H   0  0  0  0  0  0  0  0  0  0  0  0
    5.2780    1.4729   -1.1509 H   0  0  0  0  0  0  0  0  0  0  0  0
    5.3319    1.7084    0.5929 H   0  0  0  0  0  0  0  0  0  0  0  0
    4.2252   -0.5368    0.9138 H   0  0  0  0  0  0  0  0  0  0  0  0
    4.0909   -0.7000   -0.8392 H   0  0  0  0  0  0  0  0  0  0  0  0
    2.8582    1.5611    0.8157 H   0  0  0  0  0  0  0  0  0  0  0  0
    2.7370    1.4012   -0.9381 H   0  0  0  0  0  0  0  0  0  0  0  0
    1.5838   -0.8066   -0.6564 H   0  0  0  0  0  0  0  0  0  0  0  0
    1.7063   -0.6471    1.0971 H   0  0  0  0  0  0  0  0  0  0  0  0
    0.3420    1.4535    1.0014 H   0  0  0  0  0  0  0  0  0  0  0  0
    0.2199    1.2941   -0.7527 H   0  0  0  0  0  0  0  0  0  0  0  0
   -0.7957   -0.7501    1.2805 H   0  0  0  0  0  0  0  0  0  0  0  0
   -0.9153   -0.9086   -0.4743 H   0  0  0  0  0  0  0  0  0  0  0  0
   -2.3009    1.1939   -0.5794 H   0  0  0  0  0  0  0  0  0  0  0  0
   -2.1720    1.3686    1.1788 H   0  0  0  0  0  0  0  0  0  0  0  0
   -4.4172   -1.3722    2.0997 H   0  0  0  0  0  0  0  0  0  0  0  0
   -3.3925   -0.0162    2.6894 H   0  0  0  0  0  0  0  0  0  0  0  0
   -2.6493   -1.5148    2.0269 H   0  0  0  0  0  0  0  0  0  0  0  0
   -4.5404   -1.8860   -0.2499 H   0  0  0  0  0  0  0  0  0  0  0  0
   -2.7894   -2.0258   -0.3120 H   0  0  0  0  0  0  0  0  0  0  0  0
   -2.7125   -0.3400   -2.1956 H   0  0  0  0  0  0  0  0  0  0  0  0
   -4.4811   -0.1968   -2.1317 H   0  0  0  0  0  0  0  0  0  0  0  0
   -3.7297   -1.7213   -2.5904 H   0  0  0  0  0  0  0  0  0  0  0  0
   -4.5627    1.3608   -0.4895 H   0  0  0  0  0  0  0  0  0  0  0  0
   -4.5274    1.5401    1.2732 H   0  0  0  0  0  0  0  0  0  0  0  0
   -6.2087   -0.3341    1.4928 H   0  0  0  0  0  0  0  0  0  0  0  0
   -6.2545   -0.4878   -0.2772 H   0  0  0  0  0  0  0  0  0  0  0  0
   -6.8083    0.9878    0.5005 H   0  0  0  0  0  0  0  0  0  0  0  0
  1  2  1  0
  2  3  1  0
  3  4  1  0
  4  5  1  0
  5  6  1  0
  6  7  1  0
  7  8  1  0
  8  9  1  0
  9 10  1  0
 10 11  1  0
 10 12  1  0
 12 13  1  0
 10 14  1  0
 14 15  1  0
  1 16  1  0
  1 17  1  0
  1 18  1  0
  2 19  1  0
  2 20  1  0
  3 21  1  0
  3 22  1  0
  4 23  1  0
  4 24  1  0
  5 25  1  0
  5 26  1  0
  6 27  1  0
  6 28  1  0
  7 29  1  0
  7 30  1  0
  8 31  1  0
  8 32  1  0
  9 33  1  0
  9 34  1  0
 11 35  1  0
 11 36  1  0
 11 37  1  0
 12 38  1  0
 12 39  1  0
 13 40  1  0
 13 41  1  0
 13 42  1  0
 14 43  1  0
 14 44  1  0
 15 45  1  0
 15 46  1  0
 15 47  1  0
M  CHG  1  10   1
M  END
