076_CCCCCCCC[N+](C)(C)CCCC
     RDKit          3D

 47 46  0  0  0  0  0  0  0  0999 V2000
    5.5557   -3.0502    0.5672 C   0  0  0  0  0  0  0  0  0  0  0  0
    5.6558   -1.6879   -0.1182 C   0  0  0  0  0  0  0  0  0  0  0  0
    4.9516   -0.5648    0.6644 C   0  0  0  0  0  0  0  0  0  0  0  0
    3.4362   -0.7581    0.8581 C   0  0  0  0  0  0  0  0  0  0  0  0
    2.6568   -0.7273   -0.4674 C   0  0  0  0  0  0  0  0  0  0  0  0
    1.1383   -0.8591   -0.2660 C   0  0  0  0  0  0  0  0  0  0  0  0
    0.5056    0.3996    0.3568 C   0  0  0  0  0  0  0  0  0  0  0  0
   -1.0486    0.3522    0.3389 C   0  0  0  0  0  0  0  0  0  0  0  0
   -1.7163    1.1897   -0.7109 N   0  0  0  0  0  0  0  0  0  0  0  0
   -1.4722    2.6388   -0.4758 C   0  0  0  0  0  0  0  0  0  0  0  0
   -1.2074    0.8367   -2.0618 C   0  0  0  0  0  0  0  0  0  0  0  0
   -3.1909    0.9130   -0.7208 C   0  0  0  0  0  0  0  0  0  0  0  0
   -3.9279    1.1937    0.6145 C   0  0  0  0  0  0  0  0  0  0  0  0
   -5.4568    1.1302    0.4635 C   0  0  0  0  0  0  0  0  0  0  0  0
   -5.9697   -0.2844    0.1935 C   0  0  0  0  0  0  0  0  0  0  0  0
    5.8756   -2.9770    1.6283 H   0  0  0  0  0  0  0  0  0  0  0  0
    4.5173   -3.4384    0.5169 H   0  0  0  0  0  0  0  0  0  0  0  0
    6.2179   -3.7740    0.0471 H   0  0  0  0  0  0  0  0  0  0  0  0
    6.7319   -1.4227   -0.2048 H   0  0  0  0  0  0  0  0  0  0  0  0
    5.2578   -1.7572   -1.1518 H   0  0  0  0  0  0  0  0  0  0  0  0
    5.1272    0.3986    0.1369 H   0  0  0  0  0  0  0  0  0  0  0  0
    5.4274   -0.4754    1.6658 H   0  0  0  0  0  0  0  0  0  0  0  0
    3.0845    0.0703    1.5074 H   0  0  0  0  0  0  0  0  0  0  0  0
    3.2330   -1.7058    1.3998 H   0  0  0  0  0  0  0  0  0  0  0  0
    2.9808   -1.5810   -1.0988 H   0  0  0  0  0  0  0  0  0  0  0  0
    2.8826    0.2096   -1.0221 H   0  0  0  0  0  0  0  0  0  0  0  0
    0.6835   -1.0512   -1.2594 H   0  0  0  0  0  0  0  0  0  0  0  0
    0.9191   -1.7436    0.3718 H   0  0  0  0  0  0  0  0  0  0  0  0
    0.8305    0.4564    1.4178 H   0  0  0  0  0  0  0  0  0  0  0  0
    0.9013    1.3091   -0.1349 H   0  0  0  0  0  0  0  0  0  0  0  0
   -1.3806    0.6866    1.3466 H   0  0  0  0  0  0  0  0  0  0  0  0
   -1.3849   -0.7073    0.2566 H   0  0  0  0  0  0  0  0  0  0  0  0
   -2.1781    3.2678   -1.0626 H   0  0  0  0  0  0  0  0  0  0  0  0
   -1.5782    2.9048    0.5975 H   0  0  0  0  0  0  0  0  0  0  0  0
   -0.4497    2.9450   -0.7831 H   0  0  0  0  0  0  0  0  0  0  0  0
   -1.7443    1.4071   -2.8532 H   0  0  0  0  0  0  0  0  0  0  0  0
   -0.1292    1.0765   -2.1792 H   0  0  0  0  0  0  0  0  0  0  0  0
   -1.3466   -0.2475   -2.2709 H   0  0  0  0  0  0  0  0  0  0  0  0
   -3.6839    1.5158   -1.5188 H   0  0  0  0  0  0  0  0  0  0  0  0
   -3.3671   -0.1541   -0.9864 H   0  0  0  0  0  0  0  0  0  0  0  0
   -3.6820    2.2095    0.9831 H   0  0  0  0  0  0  0  0  0  0  0  0
   -3.6202    0.4614    1.3911 H   0  0  0  0  0  0  0  0  0  0  0  0
   -5.7906    1.8091   -0.3510 H   0  0  0  0  0  0  0  0  0  0  0  0
   -5.9176    1.4914    1.4087 H   0  0  0  0  0  0  0  0  0  0  0  0
   -5.5985   -0.9882    0.9688 H   0  0  0  0  0  0  0  0  0  0  0  0
   -7.0801   -0.2835    0.2195 H   0  0  0  0  0  0  0  0  0  0  0  0
   -5.6490   -0.6342   -0.8095 H   0  0  0  0  0  0  0  0  0  0  0  0
  1  2  1  0
  2  3  1  0
  3  4  1  0
  4  5  1  0
  5  6  1  0
  6  7  1  0
  7  8  1  0
  8  9  1  0
  9 10  1  0
  9 11  1  0
  9 12  1  0
 12 13  1  0
 13 14  1  0
 14 15  1  0
  1 16  1  0
  1 17  1  0
  1 18  1  0
  2 19  1  0
  2 20  1  0
  3 21  1  0
  3 22  1  0
  4 23  1  0
  4 24  1  0
  5 25  1  0
  5 26  1  0
  6 27  1  0
  6 28  1  0
  7 29  1  0
  7 30  1  0
  8 31  1  0
  8 32  1  0
 10 33  1  0
 10 34  1  0
 10 35  1  0
 11 36  1  0
 11 37  1  0
 11 38  1  0
 12 39  1  0
 12 40  1  0
 13 41  1  0
 13 42  1  0
 14 43  1  0
 14 44  1  0
 15 45  1  0
 15 46  1  0
 15 47  1  0
M  CHG  1   9   1
M  END
