079_CCCCCCC[N+](C)(C)CCCCC
     RDKit          3D

 47 46  0  0  0  0  0  0  0  0999 V2000
    4.5226    0.4108   -2.2645 C   0  0  0  0  0  0  0  0  0  0  0  0
    3.9603    1.6632   -1.5931 C   0  0  0  0  0  0  0  0  0  0  0  0
    4.1490    1.6652   -0.0654 C   0  0  0  0  0  0  0  0  0  0  0  0
    3.4620    0.5027    0.6737 C   0  0  0  0  0  0  0  0  0  0  0  0
    1.9350    0.5076    0.5088 C   0  0  0  0  0  0  0  0  0  0  0  0
    1.2793   -0.5617    1.3978 C   0  0  0  0  0  0  0  0  0  0  0  0
   -0.2677   -0.6037    1.2338 C   0  0  0  0  0  0  0  0  0  0  0  0
   -0.8108   -1.7303    0.4063 N   0  0  0  0  0  0  0  0  0  0  0  0
   -0.5316   -3.0324    1.0731 C   0  0  0  0  0  0  0  0  0  0  0  0
   -0.2062   -1.7599   -0.9508 C   0  0  0  0  0  0  0  0  0  0  0  0
   -2.3042   -1.6181    0.3024 C   0  0  0  0  0  0  0  0  0  0  0  0
   -2.8516   -0.3080   -0.3353 C   0  0  0  0  0  0  0  0  0  0  0  0
   -3.5181    0.6082    0.7074 C   0  0  0  0  0  0  0  0  0  0  0  0
   -3.8892    1.9855    0.1365 C   0  0  0  0  0  0  0  0  0  0  0  0
   -5.0220    1.9158   -0.8870 C   0  0  0  0  0  0  0  0  0  0  0  0
    3.9063   -0.4776   -2.0136 H   0  0  0  0  0  0  0  0  0  0  0  0
    5.5730    0.2375   -1.9478 H   0  0  0  0  0  0  0  0  0  0  0  0
    4.5022    0.5425   -3.3668 H   0  0  0  0  0  0  0  0  0  0  0  0
    4.4924    2.5472   -2.0067 H   0  0  0  0  0  0  0  0  0  0  0  0
    2.8880    1.7804   -1.8556 H   0  0  0  0  0  0  0  0  0  0  0  0
    3.7628    2.6268    0.3377 H   0  0  0  0  0  0  0  0  0  0  0  0
    5.2371    1.6334    0.1610 H   0  0  0  0  0  0  0  0  0  0  0  0
    3.7069    0.5994    1.7542 H   0  0  0  0  0  0  0  0  0  0  0  0
    3.8781   -0.4687    0.3315 H   0  0  0  0  0  0  0  0  0  0  0  0
    1.6808    0.3075   -0.5509 H   0  0  0  0  0  0  0  0  0  0  0  0
    1.5380    1.5090    0.7858 H   0  0  0  0  0  0  0  0  0  0  0  0
    1.7590   -1.5377    1.1999 H   0  0  0  0  0  0  0  0  0  0  0  0
    1.5076   -0.3110    2.4573 H   0  0  0  0  0  0  0  0  0  0  0  0
   -0.7158   -0.6501    2.2530 H   0  0  0  0  0  0  0  0  0  0  0  0
   -0.5923    0.3759    0.8260 H   0  0  0  0  0  0  0  0  0  0  0  0
   -0.8755   -3.0256    2.1316 H   0  0  0  0  0  0  0  0  0  0  0  0
   -1.0510   -3.8694    0.5537 H   0  0  0  0  0  0  0  0  0  0  0  0
    0.5450   -3.2968    1.0656 H   0  0  0  0  0  0  0  0  0  0  0  0
   -0.2427   -0.7678   -1.4439 H   0  0  0  0  0  0  0  0  0  0  0  0
   -0.7286   -2.4914   -1.6067 H   0  0  0  0  0  0  0  0  0  0  0  0
    0.8628   -2.0629   -0.9157 H   0  0  0  0  0  0  0  0  0  0  0  0
   -2.7008   -2.4660   -0.3039 H   0  0  0  0  0  0  0  0  0  0  0  0
   -2.7662   -1.7557    1.3083 H   0  0  0  0  0  0  0  0  0  0  0  0
   -2.0732    0.2578   -0.8812 H   0  0  0  0  0  0  0  0  0  0  0  0
   -3.6179   -0.5874   -1.0902 H   0  0  0  0  0  0  0  0  0  0  0  0
   -2.8224    0.7688    1.5581 H   0  0  0  0  0  0  0  0  0  0  0  0
   -4.4279    0.1137    1.1132 H   0  0  0  0  0  0  0  0  0  0  0  0
   -2.9969    2.4601   -0.3266 H   0  0  0  0  0  0  0  0  0  0  0  0
   -4.2173    2.6363    0.9758 H   0  0  0  0  0  0  0  0  0  0  0  0
   -5.9034    1.3946   -0.4567 H   0  0  0  0  0  0  0  0  0  0  0  0
   -5.3249    2.9452   -1.1724 H   0  0  0  0  0  0  0  0  0  0  0  0
   -4.6899    1.3871   -1.8045 H   0  0  0  0  0  0  0  0  0  0  0  0
  1  2  1  0
  2  3  1  0
  3  4  1  0
  4  5  1  0
  5  6  1  0
  6  7  1  0
  7  8  1  0
  8  9  1  0
  8 10  1  0
  8 11  1  0
 11 12  1  0
 12 13  1  0
 13 14  1  0
 14 15  1  0
  1 16  1  0
  1 17  1  0
  1 18  1  0
  2 19  1  0
  2 20  1  0
  3 21  1  0
  3 22  1  0
  4 23  1  0
  4 24  1  0
  5 25  1  0
  5 26  1  0
  6 27  1  0
  6 28  1  0
  7 29  1  0
  7 30  1  0
  9 31  1  0
  9 32  1  0
  9 33  1  0
 10 34  1  0
 10 35  1  0
 10 36  1  0
 11 37  1  0
 11 38  1  0
 12 39  1  0
 12 40  1  0
 13 41  1  0
 13 42  1  0
 14 43  1  0
 14 44  1  0
 15 45  1  0
 15 46  1  0
 15 47  1  0
M  CHG  1   8   1
M  END
