084_CCCCCC[N+](C)(CC)CCCCC
     RDKit          3D

 47 46  0  0  0  0  0  0  0  0999 V2000
    5.0315    2.5143    0.4072 C   0  0  0  0  0  0  0  0  0  0  0  0
    4.1382    1.4689   -0.2546 C   0  0  0  0  0  0  0  0  0  0  0  0
    3.5479    0.5074    0.7869 C   0  0  0  0  0  0  0  0  0  0  0  0
    2.7551   -0.6442    0.1484 C   0  0  0  0  0  0  0  0  0  0  0  0
    1.4509   -0.1703   -0.5211 C   0  0  0  0  0  0  0  0  0  0  0  0
    0.5545   -1.3538   -0.9938 C   0  0  0  0  0  0  0  0  0  0  0  0
   -0.5857   -1.7861   -0.1004 N   0  0  0  0  0  0  0  0  0  0  0  0
   -0.2198   -1.7469    1.3427 C   0  0  0  0  0  0  0  0  0  0  0  0
   -0.8731   -3.2165   -0.4756 C   0  0  0  0  0  0  0  0  0  0  0  0
   -2.0811   -3.8818    0.2148 C   0  0  0  0  0  0  0  0  0  0  0  0
   -1.8256   -0.9759   -0.3576 C   0  0  0  0  0  0  0  0  0  0  0  0
   -1.6719    0.5554   -0.2475 C   0  0  0  0  0  0  0  0  0  0  0  0
   -3.0272    1.2547   -0.4207 C   0  0  0  0  0  0  0  0  0  0  0  0
   -2.8761    2.7780   -0.3327 C   0  0  0  0  0  0  0  0  0  0  0  0
   -4.2220    3.4763   -0.5028 C   0  0  0  0  0  0  0  0  0  0  0  0
    5.8831    2.0233    0.9246 H   0  0  0  0  0  0  0  0  0  0  0  0
    4.4489    3.1095    1.1424 H   0  0  0  0  0  0  0  0  0  0  0  0
    5.4354    3.2014   -0.3660 H   0  0  0  0  0  0  0  0  0  0  0  0
    4.7405    0.8995   -0.9955 H   0  0  0  0  0  0  0  0  0  0  0  0
    3.3217    1.9965   -0.7916 H   0  0  0  0  0  0  0  0  0  0  0  0
    2.8947    1.0673    1.4918 H   0  0  0  0  0  0  0  0  0  0  0  0
    4.3787    0.0640    1.3788 H   0  0  0  0  0  0  0  0  0  0  0  0
    2.5217   -1.3756    0.9479 H   0  0  0  0  0  0  0  0  0  0  0  0
    3.3922   -1.1661   -0.5991 H   0  0  0  0  0  0  0  0  0  0  0  0
    1.7307    0.4114   -1.4256 H   0  0  0  0  0  0  0  0  0  0  0  0
    0.9281    0.5411    0.1406 H   0  0  0  0  0  0  0  0  0  0  0  0
    0.1492   -1.0891   -1.9977 H   0  0  0  0  0  0  0  0  0  0  0  0
    1.2419   -2.2055   -1.2081 H   0  0  0  0  0  0  0  0  0  0  0  0
   -1.0883   -1.9840    1.9915 H   0  0  0  0  0  0  0  0  0  0  0  0
    0.1160   -0.7480    1.6759 H   0  0  0  0  0  0  0  0  0  0  0  0
    0.5864   -2.4770    1.5727 H   0  0  0  0  0  0  0  0  0  0  0  0
    0.0122   -3.8580   -0.2567 H   0  0  0  0  0  0  0  0  0  0  0  0
   -1.0454   -3.2962   -1.5744 H   0  0  0  0  0  0  0  0  0  0  0  0
   -3.0379   -3.4105   -0.0883 H   0  0  0  0  0  0  0  0  0  0  0  0
   -1.9847   -3.8832    1.3180 H   0  0  0  0  0  0  0  0  0  0  0  0
   -2.1324   -4.9435   -0.1070 H   0  0  0  0  0  0  0  0  0  0  0  0
   -2.2196   -1.1991   -1.3761 H   0  0  0  0  0  0  0  0  0  0  0  0
   -2.6225   -1.2631    0.3634 H   0  0  0  0  0  0  0  0  0  0  0  0
   -1.2669    0.8287    0.7488 H   0  0  0  0  0  0  0  0  0  0  0  0
   -0.9968    0.9241   -1.0479 H   0  0  0  0  0  0  0  0  0  0  0  0
   -3.7252    0.9098    0.3740 H   0  0  0  0  0  0  0  0  0  0  0  0
   -3.4576    0.9850   -1.4104 H   0  0  0  0  0  0  0  0  0  0  0  0
   -2.1842    3.1330   -1.1274 H   0  0  0  0  0  0  0  0  0  0  0  0
   -2.4492    3.0561    0.6556 H   0  0  0  0  0  0  0  0  0  0  0  0
   -4.9256    3.1581    0.2959 H   0  0  0  0  0  0  0  0  0  0  0  0
   -4.6594    3.2348   -1.4950 H   0  0  0  0  0  0  0  0  0  0  0  0
   -4.0815    4.5757   -0.4349 H   0  0  0  0  0  0  0  0  0  0  0  0
  1  2  1  0
  2  3  1  0
  3  4  1  0
  4  5  1  0
  5  6  1  0
  6  7  1  0
  7  8  1  0
  7  9  1  0
  9 10  1  0
  7 11  1  0
 11 12  1  0
 12 13  1  0
 13 14  1  0
 14 15  1  0
  1 16  1  0
  1 17  1  0
  1 18  1  0
  2 19  1  0
  2 20  1  0
  3 21  1  0
  3 22  1  0
  4 23  1  0
  4 24  1  0
  5 25  1  0
  5 26  1  0
  6 27  1  0
  6 28  1  0
  8 29  1  0
  8 30  1  0
  8 31  1  0
  9 32  1  0
  9 33  1  0
 10 34  1  0
 10 35  1  0
 10 36  1  0
 11 37  1  0
 11 38  1  0
 12 39  1  0
 12 40  1  0
 13 41  1  0
 13 42  1  0
 14 43  1  0
 14 44  1  0
 15 45  1  0
 15 46  1  0
 15 47  1  0
M  CHG  1   7   1
M  END
