085_CCCCCC[N+](C)(CCC)CCCC
     RDKit          3D

 47 46  0  0  0  0  0  0  0  0999 V2000
    5.5431    1.4257   -0.3272 C   0  0  0  0  0  0  0  0  0  0  0  0
    4.9463    0.5118    0.7319 C   0  0  0  0  0  0  0  0  0  0  0  0
    3.4193    0.5848    0.8159 C   0  0  0  0  0  0  0  0  0  0  0  0
    2.7183    0.0375   -0.4306 C   0  0  0  0  0  0  0  0  0  0  0  0
    1.1864    0.1195   -0.3550 C   0  0  0  0  0  0  0  0  0  0  0  0
    0.6035   -0.7696    0.7407 C   0  0  0  0  0  0  0  0  0  0  0  0
   -0.9509   -0.9166    0.7125 N   0  0  0  0  0  0  0  0  0  0  0  0
   -1.2796   -1.7573    1.9688 C   0  0  0  0  0  0  0  0  0  0  0  0
   -1.3781   -1.7024   -0.5498 C   0  0  0  0  0  0  0  0  0  0  0  0
   -2.8650   -2.0748   -0.5897 C   0  0  0  0  0  0  0  0  0  0  0  0
   -3.1216   -3.5362   -0.2438 C   0  0  0  0  0  0  0  0  0  0  0  0
   -1.6533    0.4534    0.8919 C   0  0  0  0  0  0  0  0  0  0  0  0
   -1.9575    1.2056   -0.4060 C   0  0  0  0  0  0  0  0  0  0  0  0
   -2.4903    2.6084   -0.0994 C   0  0  0  0  0  0  0  0  0  0  0  0
   -2.8206    3.3705   -1.3731 C   0  0  0  0  0  0  0  0  0  0  0  0
    6.6361    1.4060   -0.2667 H   0  0  0  0  0  0  0  0  0  0  0  0
    5.2631    1.1091   -1.3360 H   0  0  0  0  0  0  0  0  0  0  0  0
    5.2150    2.4601   -0.1843 H   0  0  0  0  0  0  0  0  0  0  0  0
    5.3601    0.7960    1.7070 H   0  0  0  0  0  0  0  0  0  0  0  0
    5.2613   -0.5211    0.5433 H   0  0  0  0  0  0  0  0  0  0  0  0
    3.1097    1.6223    0.9904 H   0  0  0  0  0  0  0  0  0  0  0  0
    3.1081    0.0084    1.6943 H   0  0  0  0  0  0  0  0  0  0  0  0
    3.0365    0.6082   -1.3104 H   0  0  0  0  0  0  0  0  0  0  0  0
    3.0220   -1.0026   -0.6005 H   0  0  0  0  0  0  0  0  0  0  0  0
    0.7990   -0.1685   -1.3365 H   0  0  0  0  0  0  0  0  0  0  0  0
    0.9087    1.1641   -0.1801 H   0  0  0  0  0  0  0  0  0  0  0  0
    0.8561   -0.3642    1.7271 H   0  0  0  0  0  0  0  0  0  0  0  0
    1.0117   -1.7851    0.6713 H   0  0  0  0  0  0  0  0  0  0  0  0
   -2.3635   -1.8616    2.0573 H   0  0  0  0  0  0  0  0  0  0  0  0
   -0.8924   -1.2298    2.8463 H   0  0  0  0  0  0  0  0  0  0  0  0
   -0.8003   -2.7350    1.8650 H   0  0  0  0  0  0  0  0  0  0  0  0
   -1.1383   -1.0747   -1.4121 H   0  0  0  0  0  0  0  0  0  0  0  0
   -0.7421   -2.5940   -0.6030 H   0  0  0  0  0  0  0  0  0  0  0  0
   -3.2240   -1.9208   -1.6152 H   0  0  0  0  0  0  0  0  0  0  0  0
   -3.4785   -1.4314    0.0476 H   0  0  0  0  0  0  0  0  0  0  0  0
   -2.8101   -3.7778    0.7752 H   0  0  0  0  0  0  0  0  0  0  0  0
   -2.5849   -4.1988   -0.9307 H   0  0  0  0  0  0  0  0  0  0  0  0
   -4.1898   -3.7597   -0.3299 H   0  0  0  0  0  0  0  0  0  0  0  0
   -2.5977    0.2651    1.4165 H   0  0  0  0  0  0  0  0  0  0  0  0
   -1.0193    1.0465    1.5613 H   0  0  0  0  0  0  0  0  0  0  0  0
   -2.7161    0.6688   -0.9855 H   0  0  0  0  0  0  0  0  0  0  0  0
   -1.0765    1.2955   -1.0442 H   0  0  0  0  0  0  0  0  0  0  0  0
   -3.3913    2.5374    0.5210 H   0  0  0  0  0  0  0  0  0  0  0  0
   -1.7444    3.1725    0.4727 H   0  0  0  0  0  0  0  0  0  0  0  0
   -1.9322    3.4872   -2.0019 H   0  0  0  0  0  0  0  0  0  0  0  0
   -3.5875    2.8490   -1.9546 H   0  0  0  0  0  0  0  0  0  0  0  0
   -3.1984    4.3686   -1.1303 H   0  0  0  0  0  0  0  0  0  0  0  0
  1  2  1  0
  2  3  1  0
  3  4  1  0
  4  5  1  0
  5  6  1  0
  6  7  1  0
  7  8  1  0
  7  9  1  0
  9 10  1  0
 10 11  1  0
  7 12  1  0
 12 13  1  0
 13 14  1  0
 14 15  1  0
  1 16  1  0
  1 17  1  0
  1 18  1  0
  2 19  1  0
  2 20  1  0
  3 21  1  0
  3 22  1  0
  4 23  1  0
  4 24  1  0
  5 25  1  0
  5 26  1  0
  6 27  1  0
  6 28  1  0
  8 29  1  0
  8 30  1  0
  8 31  1  0
  9 32  1  0
  9 33  1  0
 10 34  1  0
 10 35  1  0
 11 36  1  0
 11 37  1  0
 11 38  1  0
 12 39  1  0
 12 40  1  0
 13 41  1  0
 13 42  1  0
 14 43  1  0
 14 44  1  0
 15 45  1  0
 15 46  1  0
 15 47  1  0
M  CHG  1   7   1
M  END
