091_CCCCC[N+](CC)(CCC)CCCC
     RDKit          3D

 47 46  0  0  0  0  0  0  0  0999 V2000
    5.0765    0.6667   -0.2314 C   0  0  0  0  0  0  0  0  0  0  0  0
    3.5556    0.6899   -0.2488 C   0  0  0  0  0  0  0  0  0  0  0  0
    2.9749    0.0804    1.0283 C   0  0  0  0  0  0  0  0  0  0  0  0
    1.4446    0.1706    1.1006 C   0  0  0  0  0  0  0  0  0  0  0  0
    0.7563   -0.7739    0.1097 C   0  0  0  0  0  0  0  0  0  0  0  0
   -0.7999   -0.6497    0.0232 N   0  0  0  0  0  0  0  0  0  0  0  0
   -1.4663   -0.3349    1.3787 C   0  0  0  0  0  0  0  0  0  0  0  0
   -1.3462   -1.4569    2.4013 C   0  0  0  0  0  0  0  0  0  0  0  0
   -1.2833   -2.0555   -0.5130 C   0  0  0  0  0  0  0  0  0  0  0  0
   -2.7938   -2.1562   -0.7370 C   0  0  0  0  0  0  0  0  0  0  0  0
   -3.1772   -3.5670   -1.1649 C   0  0  0  0  0  0  0  0  0  0  0  0
   -1.2238    0.3904   -1.0592 C   0  0  0  0  0  0  0  0  0  0  0  0
   -0.5658    1.7713   -1.0471 C   0  0  0  0  0  0  0  0  0  0  0  0
   -1.1025    2.7494   -0.0023 C   0  0  0  0  0  0  0  0  0  0  0  0
   -0.5707    4.1563   -0.2403 C   0  0  0  0  0  0  0  0  0  0  0  0
    5.4726    1.1053   -1.1526 H   0  0  0  0  0  0  0  0  0  0  0  0
    5.4684    1.2415    0.6138 H   0  0  0  0  0  0  0  0  0  0  0  0
    5.4520   -0.3586   -0.1541 H   0  0  0  0  0  0  0  0  0  0  0  0
    3.2142    1.7261   -0.3553 H   0  0  0  0  0  0  0  0  0  0  0  0
    3.2075    0.1406   -1.1294 H   0  0  0  0  0  0  0  0  0  0  0  0
    3.3889    0.6124    1.8942 H   0  0  0  0  0  0  0  0  0  0  0  0
    3.2898   -0.9660    1.1214 H   0  0  0  0  0  0  0  0  0  0  0  0
    1.1480    1.2111    0.9649 H   0  0  0  0  0  0  0  0  0  0  0  0
    1.1604   -0.1007    2.1230 H   0  0  0  0  0  0  0  0  0  0  0  0
    0.9769   -1.8037    0.4156 H   0  0  0  0  0  0  0  0  0  0  0  0
    1.1264   -0.6504   -0.9129 H   0  0  0  0  0  0  0  0  0  0  0  0
   -2.5201   -0.1068    1.1879 H   0  0  0  0  0  0  0  0  0  0  0  0
   -1.0050    0.5673    1.7775 H   0  0  0  0  0  0  0  0  0  0  0  0
   -1.6842   -1.0959    3.3787 H   0  0  0  0  0  0  0  0  0  0  0  0
   -0.3198   -1.8135    2.5177 H   0  0  0  0  0  0  0  0  0  0  0  0
   -1.9800   -2.3110    2.1463 H   0  0  0  0  0  0  0  0  0  0  0  0
   -0.7458   -2.2289   -1.4540 H   0  0  0  0  0  0  0  0  0  0  0  0
   -0.9437   -2.8112    0.2036 H   0  0  0  0  0  0  0  0  0  0  0  0
   -3.1201   -1.4662   -1.5212 H   0  0  0  0  0  0  0  0  0  0  0  0
   -3.3514   -1.9099    0.1709 H   0  0  0  0  0  0  0  0  0  0  0  0
   -2.9098   -4.2967   -0.3938 H   0  0  0  0  0  0  0  0  0  0  0  0
   -4.2568   -3.6315   -1.3333 H   0  0  0  0  0  0  0  0  0  0  0  0
   -2.6709   -3.8463   -2.0944 H   0  0  0  0  0  0  0  0  0  0  0  0
   -2.3117    0.4996   -0.9953 H   0  0  0  0  0  0  0  0  0  0  0  0
   -0.9881   -0.0752   -2.0243 H   0  0  0  0  0  0  0  0  0  0  0  0
    0.5242    1.7049   -1.0073 H   0  0  0  0  0  0  0  0  0  0  0  0
   -0.7778    2.2128   -2.0315 H   0  0  0  0  0  0  0  0  0  0  0  0
   -2.1977    2.7712   -0.0368 H   0  0  0  0  0  0  0  0  0  0  0  0
   -0.8125    2.4506    1.0057 H   0  0  0  0  0  0  0  0  0  0  0  0
   -0.8764    4.5321   -1.2220 H   0  0  0  0  0  0  0  0  0  0  0  0
    0.5227    4.1750   -0.1891 H   0  0  0  0  0  0  0  0  0  0  0  0
   -0.9586    4.8413    0.5202 H   0  0  0  0  0  0  0  0  0  0  0  0
  1  2  1  0
  2  3  1  0
  3  4  1  0
  4  5  1  0
  5  6  1  0
  6  7  1  0
  7  8  1  0
  6  9  1  0
  9 10  1  0
 10 11  1  0
  6 12  1  0
 12 13  1  0
 13 14  1  0
 14 15  1  0
  1 16  1  0
  1 17  1  0
  1 18  1  0
  2 19  1  0
  2 20  1  0
  3 21  1  0
  3 22  1  0
  4 23  1  0
  4 24  1  0
  5 25  1  0
  5 26  1  0
  7 27  1  0
  7 28  1  0
  8 29  1  0
  8 30  1  0
  8 31  1  0
  9 32  1  0
  9 33  1  0
 10 34  1  0
 10 35  1  0
 11 36  1  0
 11 37  1  0
 11 38  1  0
 12 39  1  0
 12 40  1  0
 13 41  1  0
 13 42  1  0
 14 43  1  0
 14 44  1  0
 15 45  1  0
 15 46  1  0
 15 47  1  0
M  CHG  1   6   1
M  END
