093_CCCC[N+](CC)(CCCC)CCCC
     RDKit          3D

 47 46  0  0  0  0  0  0  0  0999 V2000
    3.4967   -3.3210    0.8911 C   0  0  0  0  0  0  0  0  0  0  0  0
    2.2828   -2.4904    1.2975 C   0  0  0  0  0  0  0  0  0  0  0  0
    2.4450   -1.0222    0.8718 C   0  0  0  0  0  0  0  0  0  0  0  0
    1.1984   -0.1603    1.2340 C   0  0  0  0  0  0  0  0  0  0  0  0
    0.3181    0.2640    0.0834 N   0  0  0  0  0  0  0  0  0  0  0  0
    1.1303    1.1182   -0.8617 C   0  0  0  0  0  0  0  0  0  0  0  0
    0.3740    2.1972   -1.6657 C   0  0  0  0  0  0  0  0  0  0  0  0
   -0.1661   -0.9922   -0.5942 C   0  0  0  0  0  0  0  0  0  0  0  0
   -1.0815   -0.8035   -1.8286 C   0  0  0  0  0  0  0  0  0  0  0  0
   -1.6020   -2.1444   -2.3752 C   0  0  0  0  0  0  0  0  0  0  0  0
   -2.7228   -2.7390   -1.5214 C   0  0  0  0  0  0  0  0  0  0  0  0
   -0.8729    0.9873    0.6610 C   0  0  0  0  0  0  0  0  0  0  0  0
   -0.5411    2.1607    1.6228 C   0  0  0  0  0  0  0  0  0  0  0  0
   -1.7618    3.0530    1.9058 C   0  0  0  0  0  0  0  0  0  0  0  0
   -2.0476    4.0420    0.7758 C   0  0  0  0  0  0  0  0  0  0  0  0
    3.3570   -4.3711    1.2237 H   0  0  0  0  0  0  0  0  0  0  0  0
    4.4170   -2.9176    1.3648 H   0  0  0  0  0  0  0  0  0  0  0  0
    3.6174   -3.3117   -0.2132 H   0  0  0  0  0  0  0  0  0  0  0  0
    1.3771   -2.9340    0.8343 H   0  0  0  0  0  0  0  0  0  0  0  0
    2.1663   -2.5448    2.4019 H   0  0  0  0  0  0  0  0  0  0  0  0
    2.7017   -0.9641   -0.2043 H   0  0  0  0  0  0  0  0  0  0  0  0
    3.3263   -0.6119    1.4139 H   0  0  0  0  0  0  0  0  0  0  0  0
    1.6049    0.7354    1.7526 H   0  0  0  0  0  0  0  0  0  0  0  0
    0.5938   -0.6891    2.0076 H   0  0  0  0  0  0  0  0  0  0  0  0
    1.9345    1.6607   -0.3149 H   0  0  0  0  0  0  0  0  0  0  0  0
    1.6607    0.4800   -1.6026 H   0  0  0  0  0  0  0  0  0  0  0  0
    0.0892    3.0505   -1.0210 H   0  0  0  0  0  0  0  0  0  0  0  0
   -0.5310    1.8148   -2.1703 H   0  0  0  0  0  0  0  0  0  0  0  0
    1.0484    2.5993   -2.4510 H   0  0  0  0  0  0  0  0  0  0  0  0
   -0.6958   -1.6294    0.1475 H   0  0  0  0  0  0  0  0  0  0  0  0
    0.6903   -1.5952   -0.9605 H   0  0  0  0  0  0  0  0  0  0  0  0
   -0.4872   -0.3437   -2.6446 H   0  0  0  0  0  0  0  0  0  0  0  0
   -1.9516   -0.1535   -1.6125 H   0  0  0  0  0  0  0  0  0  0  0  0
   -2.0038   -1.9740   -3.3979 H   0  0  0  0  0  0  0  0  0  0  0  0
   -0.7700   -2.8767   -2.4621 H   0  0  0  0  0  0  0  0  0  0  0  0
   -3.1336   -3.6375   -2.0283 H   0  0  0  0  0  0  0  0  0  0  0  0
   -3.5446   -2.0033   -1.3902 H   0  0  0  0  0  0  0  0  0  0  0  0
   -2.3437   -3.0502   -0.5268 H   0  0  0  0  0  0  0  0  0  0  0  0
   -1.5311    1.3699   -0.1390 H   0  0  0  0  0  0  0  0  0  0  0  0
   -1.5098    0.2741    1.2337 H   0  0  0  0  0  0  0  0  0  0  0  0
   -0.2240    1.7387    2.6008 H   0  0  0  0  0  0  0  0  0  0  0  0
    0.2987    2.7791    1.2445 H   0  0  0  0  0  0  0  0  0  0  0  0
   -1.5651    3.6378    2.8307 H   0  0  0  0  0  0  0  0  0  0  0  0
   -2.6614    2.4266    2.0915 H   0  0  0  0  0  0  0  0  0  0  0  0
   -2.3340    3.5127   -0.1558 H   0  0  0  0  0  0  0  0  0  0  0  0
   -2.8899    4.7029    1.0699 H   0  0  0  0  0  0  0  0  0  0  0  0
   -1.1564    4.6757    0.5813 H   0  0  0  0  0  0  0  0  0  0  0  0
  1  2  1  0
  2  3  1  0
  3  4  1  0
  4  5  1  0
  5  6  1  0
  6  7  1  0
  5  8  1  0
  8  9  1  0
  9 10  1  0
 10 11  1  0
  5 12  1  0
 12 13  1  0
 13 14  1  0
 14 15  1  0
  1 16  1  0
  1 17  1  0
  1 18  1  0
  2 19  1  0
  2 20  1  0
  3 21  1  0
  3 22  1  0
  4 23  1  0
  4 24  1  0
  6 25  1  0
  6 26  1  0
  7 27  1  0
  7 28  1  0
  7 29  1  0
  8 30  1  0
  8 31  1  0
  9 32  1  0
  9 33  1  0
 10 34  1  0
 10 35  1  0
 11 36  1  0
 11 37  1  0
 11 38  1  0
 12 39  1  0
 12 40  1  0
 13 41  1  0
 13 42  1  0
 14 43  1  0
 14 44  1  0
 15 45  1  0
 15 46  1  0
 15 47  1  0
M  CHG  1   5   1
M  END
