095_CCCCCCCCCCCC[N+](C)(C)C
     RDKit          3D

 50 49  0  0  0  0  0  0  0  0999 V2000
    6.6782    0.5279   -1.5366 C   0  0  0  0  0  0  0  0  0  0  0  0
    5.6730    1.2011   -0.6149 C   0  0  0  0  0  0  0  0  0  0  0  0
    4.8369    0.2156    0.2061 C   0  0  0  0  0  0  0  0  0  0  0  0
    3.8908   -0.6324   -0.6479 C   0  0  0  0  0  0  0  0  0  0  0  0
    3.0581   -1.6254    0.1705 C   0  0  0  0  0  0  0  0  0  0  0  0
    2.1195   -1.0105    1.2138 C   0  0  0  0  0  0  0  0  0  0  0  0
    1.1112    0.0108    0.6779 C   0  0  0  0  0  0  0  0  0  0  0  0
    0.1771   -0.4994   -0.4241 C   0  0  0  0  0  0  0  0  0  0  0  0
   -0.6799   -1.7140   -0.0532 C   0  0  0  0  0  0  0  0  0  0  0  0
   -1.5895   -1.5356    1.1670 C   0  0  0  0  0  0  0  0  0  0  0  0
   -2.5691   -0.3562    1.1019 C   0  0  0  0  0  0  0  0  0  0  0  0
   -3.5429   -0.4646   -0.0731 C   0  0  0  0  0  0  0  0  0  0  0  0
   -4.5919    0.6644   -0.1147 N   0  0  0  0  0  0  0  0  0  0  0  0
   -5.4866    0.6469    1.1192 C   0  0  0  0  0  0  0  0  0  0  0  0
   -5.4744    0.4319   -1.3463 C   0  0  0  0  0  0  0  0  0  0  0  0
   -3.9352    2.0331   -0.2523 C   0  0  0  0  0  0  0  0  0  0  0  0
    7.3268   -0.1553   -0.9794 H   0  0  0  0  0  0  0  0  0  0  0  0
    6.1808   -0.0361   -2.3309 H   0  0  0  0  0  0  0  0  0  0  0  0
    7.3120    1.2818   -2.0147 H   0  0  0  0  0  0  0  0  0  0  0  0
    6.2204    1.8512    0.0782 H   0  0  0  0  0  0  0  0  0  0  0  0
    5.0142    1.8498   -1.2038 H   0  0  0  0  0  0  0  0  0  0  0  0
    5.5012   -0.4380    0.7842 H   0  0  0  0  0  0  0  0  0  0  0  0
    4.2555    0.7980    0.9296 H   0  0  0  0  0  0  0  0  0  0  0  0
    4.4735   -1.2130   -1.3722 H   0  0  0  0  0  0  0  0  0  0  0  0
    3.2330    0.0197   -1.2333 H   0  0  0  0  0  0  0  0  0  0  0  0
    3.7383   -2.3157    0.6854 H   0  0  0  0  0  0  0  0  0  0  0  0
    2.4741   -2.2425   -0.5227 H   0  0  0  0  0  0  0  0  0  0  0  0
    1.5813   -1.8236    1.7156 H   0  0  0  0  0  0  0  0  0  0  0  0
    2.7154   -0.5297    1.9988 H   0  0  0  0  0  0  0  0  0  0  0  0
    1.6499    0.8867    0.2972 H   0  0  0  0  0  0  0  0  0  0  0  0
    0.5130    0.3797    1.5195 H   0  0  0  0  0  0  0  0  0  0  0  0
    0.7675   -0.7519   -1.3129 H   0  0  0  0  0  0  0  0  0  0  0  0
   -0.4766    0.3251   -0.7331 H   0  0  0  0  0  0  0  0  0  0  0  0
   -1.2901   -1.9852   -0.9230 H   0  0  0  0  0  0  0  0  0  0  0  0
   -0.0285   -2.5779    0.1251 H   0  0  0  0  0  0  0  0  0  0  0  0
   -0.9726   -1.4258    2.0668 H   0  0  0  0  0  0  0  0  0  0  0  0
   -2.1614   -2.4618    1.3071 H   0  0  0  0  0  0  0  0  0  0  0  0
   -3.1194   -0.3425    2.0485 H   0  0  0  0  0  0  0  0  0  0  0  0
   -2.0036    0.5791    1.0546 H   0  0  0  0  0  0  0  0  0  0  0  0
   -4.0973   -1.4096   -0.0264 H   0  0  0  0  0  0  0  0  0  0  0  0
   -3.0081   -0.4213   -1.0282 H   0  0  0  0  0  0  0  0  0  0  0  0
   -5.8943   -0.3611    1.2372 H   0  0  0  0  0  0  0  0  0  0  0  0
   -6.2937    1.3709    0.9707 H   0  0  0  0  0  0  0  0  0  0  0  0
   -4.8957    0.9330    1.9926 H   0  0  0  0  0  0  0  0  0  0  0  0
   -6.2268    1.2252   -1.3909 H   0  0  0  0  0  0  0  0  0  0  0  0
   -4.8392    0.4591   -2.2367 H   0  0  0  0  0  0  0  0  0  0  0  0
   -5.9561   -0.5453   -1.2460 H   0  0  0  0  0  0  0  0  0  0  0  0
   -3.2517    2.0051   -1.1057 H   0  0  0  0  0  0  0  0  0  0  0  0
   -3.3966    2.2637    0.6702 H   0  0  0  0  0  0  0  0  0  0  0  0
   -4.7203    2.7780   -0.4148 H   0  0  0  0  0  0  0  0  0  0  0  0
  1  2  1  0
  2  3  1  0
  3  4  1  0
  4  5  1  0
  5  6  1  0
  6  7  1  0
  7  8  1  0
  8  9  1  0
  9 10  1  0
 10 11  1  0
 11 12  1  0
 12 13  1  0
 13 14  1  0
 13 15  1  0
 13 16  1  0
  1 17  1  0
  1 18  1  0
  1 19  1  0
  2 20  1  0
  2 21  1  0
  3 22  1  0
  3 23  1  0
  4 24  1  0
  4 25  1  0
  5 26  1  0
  5 27  1  0
  6 28  1  0
  6 29  1  0
  7 30  1  0
  7 31  1  0
  8 32  1  0
  8 33  1  0
  9 34  1  0
  9 35  1  0
 10 36  1  0
 10 37  1  0
 11 38  1  0
 11 39  1  0
 12 40  1  0
 12 41  1  0
 14 42  1  0
 14 43  1  0
 14 44  1  0
 15 45  1  0
 15 46  1  0
 15 47  1  0
 16 48  1  0
 16 49  1  0
 16 50  1  0
M  CHG  1  13   1
M  END
