098_CCCCCCCCCC[N+](C)(CC)CC
     RDKit          3D

 50 49  0  0  0  0  0  0  0  0999 V2000
    6.7489    0.9904    0.7910 C   0  0  0  0  0  0  0  0  0  0  0  0
    6.5302    0.2348   -0.5103 C   0  0  0  0  0  0  0  0  0  0  0  0
    5.8171   -1.1070   -0.3268 C   0  0  0  0  0  0  0  0  0  0  0  0
    4.4237   -1.0392    0.3059 C   0  0  0  0  0  0  0  0  0  0  0  0
    3.4266   -0.2091   -0.5051 C   0  0  0  0  0  0  0  0  0  0  0  0
    2.0251   -0.2704    0.1093 C   0  0  0  0  0  0  0  0  0  0  0  0
    1.0293    0.5639   -0.7008 C   0  0  0  0  0  0  0  0  0  0  0  0
   -0.3702    0.6198   -0.0749 C   0  0  0  0  0  0  0  0  0  0  0  0
   -1.1487   -0.6877   -0.2170 C   0  0  0  0  0  0  0  0  0  0  0  0
   -2.3924   -0.8456    0.6695 C   0  0  0  0  0  0  0  0  0  0  0  0
   -3.6305    0.0443    0.3630 N   0  0  0  0  0  0  0  0  0  0  0  0
   -3.4202    1.4427    0.9611 C   0  0  0  0  0  0  0  0  0  0  0  0
   -4.8253   -0.6215    1.1150 C   0  0  0  0  0  0  0  0  0  0  0  0
   -6.1588    0.0892    0.9395 C   0  0  0  0  0  0  0  0  0  0  0  0
   -3.9046    0.1932   -1.1445 C   0  0  0  0  0  0  0  0  0  0  0  0
   -4.2380   -1.1199   -1.8349 C   0  0  0  0  0  0  0  0  0  0  0  0
    7.2784    0.3705    1.5214 H   0  0  0  0  0  0  0  0  0  0  0  0
    5.8009    1.3127    1.2316 H   0  0  0  0  0  0  0  0  0  0  0  0
    7.3504    1.8867    0.6082 H   0  0  0  0  0  0  0  0  0  0  0  0
    5.9781    0.8680   -1.2132 H   0  0  0  0  0  0  0  0  0  0  0  0
    7.5075    0.0441   -0.9703 H   0  0  0  0  0  0  0  0  0  0  0  0
    5.7390   -1.5949   -1.3064 H   0  0  0  0  0  0  0  0  0  0  0  0
    6.4456   -1.7598    0.2920 H   0  0  0  0  0  0  0  0  0  0  0  0
    4.0443   -2.0648    0.3978 H   0  0  0  0  0  0  0  0  0  0  0  0
    4.4927   -0.6454    1.3264 H   0  0  0  0  0  0  0  0  0  0  0  0
    3.3914   -0.5806   -1.5363 H   0  0  0  0  0  0  0  0  0  0  0  0
    3.7541    0.8357   -0.5455 H   0  0  0  0  0  0  0  0  0  0  0  0
    1.6990   -1.3149    0.1525 H   0  0  0  0  0  0  0  0  0  0  0  0
    2.0616    0.1010    1.1406 H   0  0  0  0  0  0  0  0  0  0  0  0
    0.9626    0.1783   -1.7254 H   0  0  0  0  0  0  0  0  0  0  0  0
    1.4095    1.5907   -0.7737 H   0  0  0  0  0  0  0  0  0  0  0  0
   -0.2910    0.9071    0.9798 H   0  0  0  0  0  0  0  0  0  0  0  0
   -0.9121    1.4141   -0.5966 H   0  0  0  0  0  0  0  0  0  0  0  0
   -1.3880   -0.8577   -1.2717 H   0  0  0  0  0  0  0  0  0  0  0  0
   -0.4868   -1.5171    0.0592 H   0  0  0  0  0  0  0  0  0  0  0  0
   -2.1382   -0.6857    1.7245 H   0  0  0  0  0  0  0  0  0  0  0  0
   -2.7325   -1.8839    0.5734 H   0  0  0  0  0  0  0  0  0  0  0  0
   -2.5796    1.9256    0.4693 H   0  0  0  0  0  0  0  0  0  0  0  0
   -4.3129    2.0454    0.7793 H   0  0  0  0  0  0  0  0  0  0  0  0
   -3.2353    1.3409    2.0341 H   0  0  0  0  0  0  0  0  0  0  0  0
   -4.9027   -1.6543    0.7590 H   0  0  0  0  0  0  0  0  0  0  0  0
   -4.5517   -0.6502    2.1766 H   0  0  0  0  0  0  0  0  0  0  0  0
   -6.4703    0.1415   -0.1065 H   0  0  0  0  0  0  0  0  0  0  0  0
   -6.9353   -0.4666    1.4766 H   0  0  0  0  0  0  0  0  0  0  0  0
   -6.1499    1.0996    1.3555 H   0  0  0  0  0  0  0  0  0  0  0  0
   -4.7299    0.9036   -1.2621 H   0  0  0  0  0  0  0  0  0  0  0  0
   -3.0213    0.6563   -1.5951 H   0  0  0  0  0  0  0  0  0  0  0  0
   -3.4661   -1.8795   -1.6892 H   0  0  0  0  0  0  0  0  0  0  0  0
   -5.1923   -1.5300   -1.4929 H   0  0  0  0  0  0  0  0  0  0  0  0
   -4.3317   -0.9505   -2.9129 H   0  0  0  0  0  0  0  0  0  0  0  0
  1  2  1  0
  2  3  1  0
  3  4  1  0
  4  5  1  0
  5  6  1  0
  6  7  1  0
  7  8  1  0
  8  9  1  0
  9 10  1  0
 10 11  1  0
 11 12  1  0
 11 13  1  0
 13 14  1  0
 11 15  1  0
 15 16  1  0
  1 17  1  0
  1 18  1  0
  1 19  1  0
  2 20  1  0
  2 21  1  0
  3 22  1  0
  3 23  1  0
  4 24  1  0
  4 25  1  0
  5 26  1  0
  5 27  1  0
  6 28  1  0
  6 29  1  0
  7 30  1  0
  7 31  1  0
  8 32  1  0
  8 33  1  0
  9 34  1  0
  9 35  1  0
 10 36  1  0
 10 37  1  0
 12 38  1  0
 12 39  1  0
 12 40  1  0
 13 41  1  0
 13 42  1  0
 14 43  1  0
 14 44  1  0
 14 45  1  0
 15 46  1  0
 15 47  1  0
 16 48  1  0
 16 49  1  0
 16 50  1  0
M  CHG  1  11   1
M  END
