09_CC[N+](C)(C)CC
     RDKit          3D

 23 22  0  0  0  0  0  0  0  0999 V2000
    2.3060   -0.3083    0.6048 C   0  0  0  0  0  0  0  0  0  0  0  0
    0.8429   -0.7243    0.5913 C   0  0  0  0  0  0  0  0  0  0  0  0
   -0.0443    0.1436   -0.3225 N   0  0  0  0  0  0  0  0  0  0  0  0
    0.5117    0.1648   -1.7524 C   0  0  0  0  0  0  0  0  0  0  0  0
   -0.1223    1.5817    0.1854 C   0  0  0  0  0  0  0  0  0  0  0  0
   -1.4646   -0.4699   -0.4135 C   0  0  0  0  0  0  0  0  0  0  0  0
   -2.1914   -0.5452    0.9200 C   0  0  0  0  0  0  0  0  0  0  0  0
    2.8535   -0.9308    1.3208 H   0  0  0  0  0  0  0  0  0  0  0  0
    2.4376    0.7322    0.9129 H   0  0  0  0  0  0  0  0  0  0  0  0
    2.7823   -0.4508   -0.3692 H   0  0  0  0  0  0  0  0  0  0  0  0
    0.4383   -0.6499    1.6054 H   0  0  0  0  0  0  0  0  0  0  0  0
    0.7473   -1.7596    0.2451 H   0  0  0  0  0  0  0  0  0  0  0  0
    1.4652    0.6989   -1.7580 H   0  0  0  0  0  0  0  0  0  0  0  0
   -0.2032    0.6905   -2.3930 H   0  0  0  0  0  0  0  0  0  0  0  0
    0.6410   -0.8685   -2.0870 H   0  0  0  0  0  0  0  0  0  0  0  0
   -0.3700    1.5686    1.2497 H   0  0  0  0  0  0  0  0  0  0  0  0
    0.8468    2.0642    0.0334 H   0  0  0  0  0  0  0  0  0  0  0  0
   -0.8913    2.1090   -0.3868 H   0  0  0  0  0  0  0  0  0  0  0  0
   -1.3535   -1.4721   -0.8435 H   0  0  0  0  0  0  0  0  0  0  0  0
   -2.0370    0.1481   -1.1152 H   0  0  0  0  0  0  0  0  0  0  0  0
   -1.6839   -1.2031    1.6303 H   0  0  0  0  0  0  0  0  0  0  0  0
   -3.1939   -0.9581    0.7630 H   0  0  0  0  0  0  0  0  0  0  0  0
   -2.3170    0.4389    1.3790 H   0  0  0  0  0  0  0  0  0  0  0  0
  1  2  1  0
  2  3  1  0
  3  4  1  0
  3  5  1  0
  3  6  1  0
  6  7  1  0
  1  8  1  0
  1  9  1  0
  1 10  1  0
  2 11  1  0
  2 12  1  0
  4 13  1  0
  4 14  1  0
  4 15  1  0
  5 16  1  0
  5 17  1  0
  5 18  1  0
  6 19  1  0
  6 20  1  0
  7 21  1  0
  7 22  1  0
  7 23  1  0
M  CHG  1   3   1
M  END
