101_CCCCCCCCC[N+](CC)(CC)CC
     RDKit          3D

 50 49  0  0  0  0  0  0  0  0999 V2000
    5.8190    1.6918    1.3189 C   0  0  0  0  0  0  0  0  0  0  0  0
    5.3687    0.7260    0.2333 C   0  0  0  0  0  0  0  0  0  0  0  0
    4.2401    1.3216   -0.6089 C   0  0  0  0  0  0  0  0  0  0  0  0
    3.8216    0.4305   -1.7821 C   0  0  0  0  0  0  0  0  0  0  0  0
    3.2969   -0.9595   -1.4078 C   0  0  0  0  0  0  0  0  0  0  0  0
    2.1152   -0.9844   -0.4339 C   0  0  0  0  0  0  0  0  0  0  0  0
    0.8755   -0.2609   -0.9642 C   0  0  0  0  0  0  0  0  0  0  0  0
   -0.3070   -0.4051    0.0025 C   0  0  0  0  0  0  0  0  0  0  0  0
   -1.5270    0.3425   -0.5282 C   0  0  0  0  0  0  0  0  0  0  0  0
   -2.8436    0.1273    0.2811 N   0  0  0  0  0  0  0  0  0  0  0  0
   -2.6451    0.5002    1.7822 C   0  0  0  0  0  0  0  0  0  0  0  0
   -2.1521   -0.6198    2.6879 C   0  0  0  0  0  0  0  0  0  0  0  0
   -3.8797    1.1730   -0.2653 C   0  0  0  0  0  0  0  0  0  0  0  0
   -4.2030    1.0248   -1.7447 C   0  0  0  0  0  0  0  0  0  0  0  0
   -3.3503   -1.3180    0.0754 C   0  0  0  0  0  0  0  0  0  0  0  0
   -4.7507   -1.5586    0.6206 C   0  0  0  0  0  0  0  0  0  0  0  0
    6.1928    2.6244    0.8845 H   0  0  0  0  0  0  0  0  0  0  0  0
    6.6243    1.2468    1.9116 H   0  0  0  0  0  0  0  0  0  0  0  0
    4.9929    1.9339    1.9953 H   0  0  0  0  0  0  0  0  0  0  0  0
    5.0402   -0.2048    0.7077 H   0  0  0  0  0  0  0  0  0  0  0  0
    6.2235    0.4822   -0.4079 H   0  0  0  0  0  0  0  0  0  0  0  0
    3.3747    1.5383    0.0276 H   0  0  0  0  0  0  0  0  0  0  0  0
    4.5694    2.2856   -1.0169 H   0  0  0  0  0  0  0  0  0  0  0  0
    4.6806    0.3034   -2.4532 H   0  0  0  0  0  0  0  0  0  0  0  0
    3.0609    0.9598   -2.3682 H   0  0  0  0  0  0  0  0  0  0  0  0
    3.0047   -1.4758   -2.3311 H   0  0  0  0  0  0  0  0  0  0  0  0
    4.1140   -1.5526   -0.9800 H   0  0  0  0  0  0  0  0  0  0  0  0
    1.8601   -2.0336   -0.2382 H   0  0  0  0  0  0  0  0  0  0  0  0
    2.4124   -0.5564    0.5303 H   0  0  0  0  0  0  0  0  0  0  0  0
    1.0928    0.8037   -1.1066 H   0  0  0  0  0  0  0  0  0  0  0  0
    0.6017   -0.6719   -1.9434 H   0  0  0  0  0  0  0  0  0  0  0  0
   -0.5247   -1.4691    0.1352 H   0  0  0  0  0  0  0  0  0  0  0  0
   -0.0046    0.0097    0.9693 H   0  0  0  0  0  0  0  0  0  0  0  0
   -1.3302    1.4213   -0.5326 H   0  0  0  0  0  0  0  0  0  0  0  0
   -1.7324    0.0205   -1.5544 H   0  0  0  0  0  0  0  0  0  0  0  0
   -3.6154    0.8402    2.1624 H   0  0  0  0  0  0  0  0  0  0  0  0
   -1.9609    1.3559    1.8067 H   0  0  0  0  0  0  0  0  0  0  0  0
   -2.9081   -1.3979    2.8236 H   0  0  0  0  0  0  0  0  0  0  0  0
   -1.2365   -1.0987    2.3430 H   0  0  0  0  0  0  0  0  0  0  0  0
   -1.9460   -0.2103    3.6832 H   0  0  0  0  0  0  0  0  0  0  0  0
   -4.7918    1.0758    0.3328 H   0  0  0  0  0  0  0  0  0  0  0  0
   -3.4559    2.1657   -0.0704 H   0  0  0  0  0  0  0  0  0  0  0  0
   -4.9775    1.7500   -2.0179 H   0  0  0  0  0  0  0  0  0  0  0  0
   -4.5887    0.0337   -1.9942 H   0  0  0  0  0  0  0  0  0  0  0  0
   -3.3382    1.2353   -2.3794 H   0  0  0  0  0  0  0  0  0  0  0  0
   -3.3235   -1.5285   -0.9990 H   0  0  0  0  0  0  0  0  0  0  0  0
   -2.6360   -1.9932    0.5538 H   0  0  0  0  0  0  0  0  0  0  0  0
   -4.8639   -1.2321    1.6571 H   0  0  0  0  0  0  0  0  0  0  0  0
   -5.5127   -1.0551    0.0188 H   0  0  0  0  0  0  0  0  0  0  0  0
   -4.9766   -2.6297    0.5838 H   0  0  0  0  0  0  0  0  0  0  0  0
  1  2  1  0
  2  3  1  0
  3  4  1  0
  4  5  1  0
  5  6  1  0
  6  7  1  0
  7  8  1  0
  8  9  1  0
  9 10  1  0
 10 11  1  0
 11 12  1  0
 10 13  1  0
 13 14  1  0
 10 15  1  0
 15 16  1  0
  1 17  1  0
  1 18  1  0
  1 19  1  0
  2 20  1  0
  2 21  1  0
  3 22  1  0
  3 23  1  0
  4 24  1  0
  4 25  1  0
  5 26  1  0
  5 27  1  0
  6 28  1  0
  6 29  1  0
  7 30  1  0
  7 31  1  0
  8 32  1  0
  8 33  1  0
  9 34  1  0
  9 35  1  0
 11 36  1  0
 11 37  1  0
 12 38  1  0
 12 39  1  0
 12 40  1  0
 13 41  1  0
 13 42  1  0
 14 43  1  0
 14 44  1  0
 14 45  1  0
 15 46  1  0
 15 47  1  0
 16 48  1  0
 16 49  1  0
 16 50  1  0
M  CHG  1  10   1
M  END
