104_CCCCCCCC[N+](C)(CCC)CCC
     RDKit          3D

 50 49  0  0  0  0  0  0  0  0999 V2000
    6.8035    0.6775    1.1551 C   0  0  0  0  0  0  0  0  0  0  0  0
    6.2176    0.1298   -0.1463 C   0  0  0  0  0  0  0  0  0  0  0  0
    4.7523    0.5407   -0.3602 C   0  0  0  0  0  0  0  0  0  0  0  0
    3.7878   -0.2112    0.5732 C   0  0  0  0  0  0  0  0  0  0  0  0
    2.3234    0.2135    0.3775 C   0  0  0  0  0  0  0  0  0  0  0  0
    1.7242   -0.3101   -0.9407 C   0  0  0  0  0  0  0  0  0  0  0  0
    0.2201   -0.0073   -1.0573 C   0  0  0  0  0  0  0  0  0  0  0  0
   -0.6475   -1.0539   -0.3051 C   0  0  0  0  0  0  0  0  0  0  0  0
   -2.0931   -0.6832   -0.1028 N   0  0  0  0  0  0  0  0  0  0  0  0
   -2.7027   -1.8598    0.5800 C   0  0  0  0  0  0  0  0  0  0  0  0
   -2.7209   -0.4891   -1.4542 C   0  0  0  0  0  0  0  0  0  0  0  0
   -4.2255   -0.1416   -1.4608 C   0  0  0  0  0  0  0  0  0  0  0  0
   -4.7631   -0.0844   -2.8894 C   0  0  0  0  0  0  0  0  0  0  0  0
   -2.1567    0.5679    0.7385 C   0  0  0  0  0  0  0  0  0  0  0  0
   -3.4319    0.7989    1.6013 C   0  0  0  0  0  0  0  0  0  0  0  0
   -3.2625    0.3501    3.0545 C   0  0  0  0  0  0  0  0  0  0  0  0
    6.3244    0.2019    2.0354 H   0  0  0  0  0  0  0  0  0  0  0  0
    7.8904    0.4531    1.1925 H   0  0  0  0  0  0  0  0  0  0  0  0
    6.6693    1.7787    1.2095 H   0  0  0  0  0  0  0  0  0  0  0  0
    6.8203    0.5285   -0.9911 H   0  0  0  0  0  0  0  0  0  0  0  0
    6.3116   -0.9778   -0.1612 H   0  0  0  0  0  0  0  0  0  0  0  0
    4.4933    0.3107   -1.4149 H   0  0  0  0  0  0  0  0  0  0  0  0
    4.6443    1.6383   -0.2171 H   0  0  0  0  0  0  0  0  0  0  0  0
    4.0591    0.0049    1.6279 H   0  0  0  0  0  0  0  0  0  0  0  0
    3.8855   -1.3081    0.4184 H   0  0  0  0  0  0  0  0  0  0  0  0
    1.7407   -0.1843    1.2345 H   0  0  0  0  0  0  0  0  0  0  0  0
    2.2462    1.3224    0.4124 H   0  0  0  0  0  0  0  0  0  0  0  0
    1.8991   -1.4042   -1.0380 H   0  0  0  0  0  0  0  0  0  0  0  0
    2.2371    0.1890   -1.7899 H   0  0  0  0  0  0  0  0  0  0  0  0
    0.0318    1.0259   -0.7019 H   0  0  0  0  0  0  0  0  0  0  0  0
   -0.0351   -0.0419   -2.1378 H   0  0  0  0  0  0  0  0  0  0  0  0
   -0.5693   -2.0089   -0.8762 H   0  0  0  0  0  0  0  0  0  0  0  0
   -0.1750   -1.2630    0.6808 H   0  0  0  0  0  0  0  0  0  0  0  0
   -3.7706   -1.7237    0.8271 H   0  0  0  0  0  0  0  0  0  0  0  0
   -2.1705   -2.0937    1.5280 H   0  0  0  0  0  0  0  0  0  0  0  0
   -2.6460   -2.7678   -0.0620 H   0  0  0  0  0  0  0  0  0  0  0  0
   -2.5739   -1.4057   -2.0715 H   0  0  0  0  0  0  0  0  0  0  0  0
   -2.2191    0.3412   -1.9957 H   0  0  0  0  0  0  0  0  0  0  0  0
   -4.3846    0.8590   -1.0086 H   0  0  0  0  0  0  0  0  0  0  0  0
   -4.8202   -0.8979   -0.9118 H   0  0  0  0  0  0  0  0  0  0  0  0
   -4.6550   -1.0736   -3.3832 H   0  0  0  0  0  0  0  0  0  0  0  0
   -5.8402    0.1857   -2.8714 H   0  0  0  0  0  0  0  0  0  0  0  0
   -4.2159    0.6818   -3.4791 H   0  0  0  0  0  0  0  0  0  0  0  0
   -2.0586    1.4594    0.0791 H   0  0  0  0  0  0  0  0  0  0  0  0
   -1.2772    0.6322    1.4200 H   0  0  0  0  0  0  0  0  0  0  0  0
   -4.3431    0.3376    1.1808 H   0  0  0  0  0  0  0  0  0  0  0  0
   -3.6352    1.8921    1.6255 H   0  0  0  0  0  0  0  0  0  0  0  0
   -4.1764    0.6107    3.6289 H   0  0  0  0  0  0  0  0  0  0  0  0
   -3.1139   -0.7446    3.1246 H   0  0  0  0  0  0  0  0  0  0  0  0
   -2.3982    0.8675    3.5226 H   0  0  0  0  0  0  0  0  0  0  0  0
  1  2  1  0
  2  3  1  0
  3  4  1  0
  4  5  1  0
  5  6  1  0
  6  7  1  0
  7  8  1  0
  8  9  1  0
  9 10  1  0
  9 11  1  0
 11 12  1  0
 12 13  1  0
  9 14  1  0
 14 15  1  0
 15 16  1  0
  1 17  1  0
  1 18  1  0
  1 19  1  0
  2 20  1  0
  2 21  1  0
  3 22  1  0
  3 23  1  0
  4 24  1  0
  4 25  1  0
  5 26  1  0
  5 27  1  0
  6 28  1  0
  6 29  1  0
  7 30  1  0
  7 31  1  0
  8 32  1  0
  8 33  1  0
 10 34  1  0
 10 35  1  0
 10 36  1  0
 11 37  1  0
 11 38  1  0
 12 39  1  0
 12 40  1  0
 13 41  1  0
 13 42  1  0
 13 43  1  0
 14 44  1  0
 14 45  1  0
 15 46  1  0
 15 47  1  0
 16 48  1  0
 16 49  1  0
 16 50  1  0
M  CHG  1   9   1
M  END
