112_CCCCCC[N+](C)(CCC)CCCCC
     RDKit          3D

 50 49  0  0  0  0  0  0  0  0999 V2000
    5.6384    2.2591    1.1503 C   0  0  0  0  0  0  0  0  0  0  0  0
    5.1775    1.1698    0.1949 C   0  0  0  0  0  0  0  0  0  0  0  0
    3.7800    0.6634    0.5549 C   0  0  0  0  0  0  0  0  0  0  0  0
    3.3216   -0.4302   -0.4129 C   0  0  0  0  0  0  0  0  0  0  0  0
    1.9749   -1.0594   -0.0303 C   0  0  0  0  0  0  0  0  0  0  0  0
    0.8068   -0.0868   -0.1908 C   0  0  0  0  0  0  0  0  0  0  0  0
   -0.5879   -0.6675    0.2068 N   0  0  0  0  0  0  0  0  0  0  0  0
   -0.6467   -0.8612    1.7218 C   0  0  0  0  0  0  0  0  0  0  0  0
   -0.9075   -1.9508   -0.6041 C   0  0  0  0  0  0  0  0  0  0  0  0
   -0.5538   -3.2574    0.1079 C   0  0  0  0  0  0  0  0  0  0  0  0
   -0.7589   -4.4485   -0.8185 C   0  0  0  0  0  0  0  0  0  0  0  0
   -1.6138    0.4449   -0.2083 C   0  0  0  0  0  0  0  0  0  0  0  0
   -3.0192    0.2425    0.3699 C   0  0  0  0  0  0  0  0  0  0  0  0
   -4.0589    1.1652   -0.2783 C   0  0  0  0  0  0  0  0  0  0  0  0
   -3.7936    2.6503   -0.0280 C   0  0  0  0  0  0  0  0  0  0  0  0
   -4.9066    3.5161   -0.5985 C   0  0  0  0  0  0  0  0  0  0  0  0
    4.9612    3.1187    1.1214 H   0  0  0  0  0  0  0  0  0  0  0  0
    6.6394    2.6060    0.8750 H   0  0  0  0  0  0  0  0  0  0  0  0
    5.6786    1.8873    2.1791 H   0  0  0  0  0  0  0  0  0  0  0  0
    5.1783    1.5643   -0.8279 H   0  0  0  0  0  0  0  0  0  0  0  0
    5.8937    0.3404    0.2239 H   0  0  0  0  0  0  0  0  0  0  0  0
    3.0789    1.5049    0.5332 H   0  0  0  0  0  0  0  0  0  0  0  0
    3.7848    0.2703    1.5787 H   0  0  0  0  0  0  0  0  0  0  0  0
    3.2643   -0.0262   -1.4310 H   0  0  0  0  0  0  0  0  0  0  0  0
    4.0756   -1.2271   -0.4318 H   0  0  0  0  0  0  0  0  0  0  0  0
    2.0425   -1.4370    0.9942 H   0  0  0  0  0  0  0  0  0  0  0  0
    1.8311   -1.9210   -0.6901 H   0  0  0  0  0  0  0  0  0  0  0  0
    0.7260    0.2296   -1.2379 H   0  0  0  0  0  0  0  0  0  0  0  0
    0.9502    0.8041    0.4298 H   0  0  0  0  0  0  0  0  0  0  0  0
   -1.6079   -1.3098    1.9845 H   0  0  0  0  0  0  0  0  0  0  0  0
   -0.5350    0.1174    2.1982 H   0  0  0  0  0  0  0  0  0  0  0  0
    0.1632   -1.5206    2.0381 H   0  0  0  0  0  0  0  0  0  0  0  0
   -0.3895   -1.8575   -1.5658 H   0  0  0  0  0  0  0  0  0  0  0  0
   -1.9793   -1.9525   -0.8211 H   0  0  0  0  0  0  0  0  0  0  0  0
   -1.1953   -3.3955    0.9854 H   0  0  0  0  0  0  0  0  0  0  0  0
    0.4806   -3.2665    0.4592 H   0  0  0  0  0  0  0  0  0  0  0  0
   -0.5223   -5.3804   -0.2954 H   0  0  0  0  0  0  0  0  0  0  0  0
   -1.7970   -4.5054   -1.1612 H   0  0  0  0  0  0  0  0  0  0  0  0
   -0.1092   -4.3777   -1.6968 H   0  0  0  0  0  0  0  0  0  0  0  0
   -1.2021    1.3960    0.1488 H   0  0  0  0  0  0  0  0  0  0  0  0
   -1.6287    0.4572   -1.3046 H   0  0  0  0  0  0  0  0  0  0  0  0
   -3.3600   -0.7885    0.2360 H   0  0  0  0  0  0  0  0  0  0  0  0
   -3.0118    0.4337    1.4494 H   0  0  0  0  0  0  0  0  0  0  0  0
   -4.0975    0.9723   -1.3574 H   0  0  0  0  0  0  0  0  0  0  0  0
   -5.0458    0.9041    0.1238 H   0  0  0  0  0  0  0  0  0  0  0  0
   -3.7086    2.8377    1.0486 H   0  0  0  0  0  0  0  0  0  0  0  0
   -2.8459    2.9506   -0.4877 H   0  0  0  0  0  0  0  0  0  0  0  0
   -4.9994    3.3729   -1.6798 H   0  0  0  0  0  0  0  0  0  0  0  0
   -5.8686    3.2744   -0.1355 H   0  0  0  0  0  0  0  0  0  0  0  0
   -4.6968    4.5740   -0.4124 H   0  0  0  0  0  0  0  0  0  0  0  0
  1  2  1  0
  2  3  1  0
  3  4  1  0
  4  5  1  0
  5  6  1  0
  6  7  1  0
  7  8  1  0
  7  9  1  0
  9 10  1  0
 10 11  1  0
  7 12  1  0
 12 13  1  0
 13 14  1  0
 14 15  1  0
 15 16  1  0
  1 17  1  0
  1 18  1  0
  1 19  1  0
  2 20  1  0
  2 21  1  0
  3 22  1  0
  3 23  1  0
  4 24  1  0
  4 25  1  0
  5 26  1  0
  5 27  1  0
  6 28  1  0
  6 29  1  0
  8 30  1  0
  8 31  1  0
  8 32  1  0
  9 33  1  0
  9 34  1  0
 10 35  1  0
 10 36  1  0
 11 37  1  0
 11 38  1  0
 11 39  1  0
 12 40  1  0
 12 41  1  0
 13 42  1  0
 13 43  1  0
 14 44  1  0
 14 45  1  0
 15 46  1  0
 15 47  1  0
 16 48  1  0
 16 49  1  0
 16 50  1  0
M  CHG  1   7   1
M  END
