115_CCCCCC[N+](CC)(CCC)CCCC
     RDKit          3D

 50 49  0  0  0  0  0  0  0  0999 V2000
    5.4045    1.2069    0.7320 C   0  0  0  0  0  0  0  0  0  0  0  0
    4.5664    0.7492   -0.4616 C   0  0  0  0  0  0  0  0  0  0  0  0
    3.0554    0.8747   -0.2122 C   0  0  0  0  0  0  0  0  0  0  0  0
    2.5294   -0.1910    0.7645 C   0  0  0  0  0  0  0  0  0  0  0  0
    1.0218   -0.0518    1.0316 C   0  0  0  0  0  0  0  0  0  0  0  0
    0.1579   -0.3696   -0.2177 C   0  0  0  0  0  0  0  0  0  0  0  0
   -1.2836   -0.6896    0.0708 N   0  0  0  0  0  0  0  0  0  0  0  0
   -1.4618   -2.0091    0.7906 C   0  0  0  0  0  0  0  0  0  0  0  0
   -0.4281   -3.1218    0.5111 C   0  0  0  0  0  0  0  0  0  0  0  0
   -2.0849   -0.6671   -1.2089 C   0  0  0  0  0  0  0  0  0  0  0  0
   -1.9323   -1.8449   -2.2065 C   0  0  0  0  0  0  0  0  0  0  0  0
   -0.6751   -1.7906   -3.0811 C   0  0  0  0  0  0  0  0  0  0  0  0
   -1.8862    0.3595    0.9765 C   0  0  0  0  0  0  0  0  0  0  0  0
   -1.9107    1.8114    0.4227 C   0  0  0  0  0  0  0  0  0  0  0  0
   -2.2723    2.8431    1.5039 C   0  0  0  0  0  0  0  0  0  0  0  0
   -3.7176    2.7176    1.9856 C   0  0  0  0  0  0  0  0  0  0  0  0
    5.1188    2.2362    1.0365 H   0  0  0  0  0  0  0  0  0  0  0  0
    6.4781    1.2088    0.4487 H   0  0  0  0  0  0  0  0  0  0  0  0
    5.2774    0.5175    1.5918 H   0  0  0  0  0  0  0  0  0  0  0  0
    4.8316    1.3850   -1.3342 H   0  0  0  0  0  0  0  0  0  0  0  0
    4.8266   -0.3003   -0.7204 H   0  0  0  0  0  0  0  0  0  0  0  0
    2.5450    0.7539   -1.1911 H   0  0  0  0  0  0  0  0  0  0  0  0
    2.8191    1.8923    0.1693 H   0  0  0  0  0  0  0  0  0  0  0  0
    2.7486   -1.2080    0.3719 H   0  0  0  0  0  0  0  0  0  0  0  0
    3.0521   -0.0871    1.7385 H   0  0  0  0  0  0  0  0  0  0  0  0
    0.8177    0.9823    1.3837 H   0  0  0  0  0  0  0  0  0  0  0  0
    0.7632   -0.7397    1.8625 H   0  0  0  0  0  0  0  0  0  0  0  0
    0.6408   -1.1969   -0.7637 H   0  0  0  0  0  0  0  0  0  0  0  0
    0.2347    0.4892   -0.9173 H   0  0  0  0  0  0  0  0  0  0  0  0
   -2.4776   -2.4212    0.5951 H   0  0  0  0  0  0  0  0  0  0  0  0
   -1.4299   -1.8728    1.8962 H   0  0  0  0  0  0  0  0  0  0  0  0
    0.5529   -2.8810    0.9680 H   0  0  0  0  0  0  0  0  0  0  0  0
   -0.2773   -3.3239   -0.5622 H   0  0  0  0  0  0  0  0  0  0  0  0
   -0.7808   -4.0649    0.9795 H   0  0  0  0  0  0  0  0  0  0  0  0
   -3.1720   -0.6349   -0.9619 H   0  0  0  0  0  0  0  0  0  0  0  0
   -1.8901    0.2680   -1.7787 H   0  0  0  0  0  0  0  0  0  0  0  0
   -2.0548   -2.8348   -1.7291 H   0  0  0  0  0  0  0  0  0  0  0  0
   -2.7945   -1.7698   -2.9058 H   0  0  0  0  0  0  0  0  0  0  0  0
   -0.4004   -0.7436   -3.3289 H   0  0  0  0  0  0  0  0  0  0  0  0
    0.1795   -2.2984   -2.5959 H   0  0  0  0  0  0  0  0  0  0  0  0
   -0.8664   -2.3306   -4.0328 H   0  0  0  0  0  0  0  0  0  0  0  0
   -2.9379    0.0799    1.2167 H   0  0  0  0  0  0  0  0  0  0  0  0
   -1.3708    0.3742    1.9619 H   0  0  0  0  0  0  0  0  0  0  0  0
   -0.9179    2.0999    0.0271 H   0  0  0  0  0  0  0  0  0  0  0  0
   -2.6454    1.8996   -0.4054 H   0  0  0  0  0  0  0  0  0  0  0  0
   -1.5814    2.7484    2.3696 H   0  0  0  0  0  0  0  0  0  0  0  0
   -2.1353    3.8608    1.0777 H   0  0  0  0  0  0  0  0  0  0  0  0
   -3.9550    3.5646    2.6633 H   0  0  0  0  0  0  0  0  0  0  0  0
   -3.8625    1.7738    2.5509 H   0  0  0  0  0  0  0  0  0  0  0  0
   -4.4190    2.7466    1.1249 H   0  0  0  0  0  0  0  0  0  0  0  0
  1  2  1  0
  2  3  1  0
  3  4  1  0
  4  5  1  0
  5  6  1  0
  6  7  1  0
  7  8  1  0
  8  9  1  0
  7 10  1  0
 10 11  1  0
 11 12  1  0
  7 13  1  0
 13 14  1  0
 14 15  1  0
 15 16  1  0
  1 17  1  0
  1 18  1  0
  1 19  1  0
  2 20  1  0
  2 21  1  0
  3 22  1  0
  3 23  1  0
  4 24  1  0
  4 25  1  0
  5 26  1  0
  5 27  1  0
  6 28  1  0
  6 29  1  0
  8 30  1  0
  8 31  1  0
  9 32  1  0
  9 33  1  0
  9 34  1  0
 10 35  1  0
 10 36  1  0
 11 37  1  0
 11 38  1  0
 12 39  1  0
 12 40  1  0
 12 41  1  0
 13 42  1  0
 13 43  1  0
 14 44  1  0
 14 45  1  0
 15 46  1  0
 15 47  1  0
 16 48  1  0
 16 49  1  0
 16 50  1  0
M  CHG  1   7   1
M  END
