117_CCCCC[N+](C)(CCCC)CCCCC
     RDKit          3D

 50 49  0  0  0  0  0  0  0  0999 V2000
    5.7411    0.5301    0.5798 C   0  0  0  0  0  0  0  0  0  0  0  0
    4.7774   -0.6510    0.6518 C   0  0  0  0  0  0  0  0  0  0  0  0
    3.3198   -0.1755    0.6952 C   0  0  0  0  0  0  0  0  0  0  0  0
    2.3518   -1.3671    0.7357 C   0  0  0  0  0  0  0  0  0  0  0  0
    0.8819   -1.0095    1.1048 C   0  0  0  0  0  0  0  0  0  0  0  0
    0.0454   -0.2799    0.0774 N   0  0  0  0  0  0  0  0  0  0  0  0
    0.4148   -0.6644   -1.3129 C   0  0  0  0  0  0  0  0  0  0  0  0
    0.2261    1.2003    0.2906 C   0  0  0  0  0  0  0  0  0  0  0  0
   -0.2554    2.1175   -0.8646 C   0  0  0  0  0  0  0  0  0  0  0  0
   -0.1977    3.5931   -0.4486 C   0  0  0  0  0  0  0  0  0  0  0  0
   -0.6343    4.5077   -1.5897 C   0  0  0  0  0  0  0  0  0  0  0  0
   -1.4028   -0.6039    0.3357 C   0  0  0  0  0  0  0  0  0  0  0  0
   -1.8722   -2.0052   -0.1472 C   0  0  0  0  0  0  0  0  0  0  0  0
   -3.2037   -2.4337    0.4908 C   0  0  0  0  0  0  0  0  0  0  0  0
   -4.3850   -1.5643    0.0357 C   0  0  0  0  0  0  0  0  0  0  0  0
   -5.7050   -2.1026    0.5801 C   0  0  0  0  0  0  0  0  0  0  0  0
    6.7862    0.1561    0.5530 H   0  0  0  0  0  0  0  0  0  0  0  0
    5.5536    1.1260   -0.3388 H   0  0  0  0  0  0  0  0  0  0  0  0
    5.6197    1.1819    1.4712 H   0  0  0  0  0  0  0  0  0  0  0  0
    4.9341   -1.2980   -0.2390 H   0  0  0  0  0  0  0  0  0  0  0  0
    5.0073   -1.2448    1.5633 H   0  0  0  0  0  0  0  0  0  0  0  0
    3.1720    0.4564    1.5984 H   0  0  0  0  0  0  0  0  0  0  0  0
    3.1293    0.4307   -0.2142 H   0  0  0  0  0  0  0  0  0  0  0  0
    2.4136   -1.9425   -0.2105 H   0  0  0  0  0  0  0  0  0  0  0  0
    2.7111   -2.0628    1.5266 H   0  0  0  0  0  0  0  0  0  0  0  0
    0.4162   -1.9796    1.3751 H   0  0  0  0  0  0  0  0  0  0  0  0
    0.8904   -0.4522    2.0701 H   0  0  0  0  0  0  0  0  0  0  0  0
    1.3911   -0.2277   -1.6106 H   0  0  0  0  0  0  0  0  0  0  0  0
    0.4855   -1.7678   -1.4250 H   0  0  0  0  0  0  0  0  0  0  0  0
   -0.3456   -0.3130   -2.0447 H   0  0  0  0  0  0  0  0  0  0  0  0
    1.2878    1.4524    0.4625 H   0  0  0  0  0  0  0  0  0  0  0  0
   -0.2938    1.5111    1.2269 H   0  0  0  0  0  0  0  0  0  0  0  0
   -1.2939    1.8786   -1.1679 H   0  0  0  0  0  0  0  0  0  0  0  0
    0.4051    1.9815   -1.7480 H   0  0  0  0  0  0  0  0  0  0  0  0
   -0.8671    3.7633    0.4227 H   0  0  0  0  0  0  0  0  0  0  0  0
    0.8405    3.8594   -0.1522 H   0  0  0  0  0  0  0  0  0  0  0  0
   -0.5832    5.5662   -1.2579 H   0  0  0  0  0  0  0  0  0  0  0  0
    0.0354    4.3778   -2.4664 H   0  0  0  0  0  0  0  0  0  0  0  0
   -1.6794    4.2795   -1.8890 H   0  0  0  0  0  0  0  0  0  0  0  0
   -1.6185   -0.5073    1.4254 H   0  0  0  0  0  0  0  0  0  0  0  0
   -2.0664    0.1307   -0.1622 H   0  0  0  0  0  0  0  0  0  0  0  0
   -1.9905   -2.0020   -1.2527 H   0  0  0  0  0  0  0  0  0  0  0  0
   -1.1238   -2.7858    0.0934 H   0  0  0  0  0  0  0  0  0  0  0  0
   -3.4001   -3.4889    0.1990 H   0  0  0  0  0  0  0  0  0  0  0  0
   -3.1157   -2.4028    1.5990 H   0  0  0  0  0  0  0  0  0  0  0  0
   -4.2544   -0.5235    0.4010 H   0  0  0  0  0  0  0  0  0  0  0  0
   -4.4352   -1.5469   -1.0747 H   0  0  0  0  0  0  0  0  0  0  0  0
   -5.6875   -2.1152    1.6908 H   0  0  0  0  0  0  0  0  0  0  0  0
   -5.8872   -3.1319    0.2040 H   0  0  0  0  0  0  0  0  0  0  0  0
   -6.5389   -1.4503    0.2453 H   0  0  0  0  0  0  0  0  0  0  0  0
  1  2  1  0
  2  3  1  0
  3  4  1  0
  4  5  1  0
  5  6  1  0
  6  7  1  0
  6  8  1  0
  8  9  1  0
  9 10  1  0
 10 11  1  0
  6 12  1  0
 12 13  1  0
 13 14  1  0
 14 15  1  0
 15 16  1  0
  1 17  1  0
  1 18  1  0
  1 19  1  0
  2 20  1  0
  2 21  1  0
  3 22  1  0
  3 23  1  0
  4 24  1  0
  4 25  1  0
  5 26  1  0
  5 27  1  0
  7 28  1  0
  7 29  1  0
  7 30  1  0
  8 31  1  0
  8 32  1  0
  9 33  1  0
  9 34  1  0
 10 35  1  0
 10 36  1  0
 11 37  1  0
 11 38  1  0
 11 39  1  0
 12 40  1  0
 12 41  1  0
 13 42  1  0
 13 43  1  0
 14 44  1  0
 14 45  1  0
 15 46  1  0
 15 47  1  0
 16 48  1  0
 16 49  1  0
 16 50  1  0
M  CHG  1   6   1
M  END
