118_CCCCC[N+](CC)(CCC)CCCCC
     RDKit          3D

 50 49  0  0  0  0  0  0  0  0999 V2000
   -3.6071    2.7860   -1.0178 C   0  0  0  0  0  0  0  0  0  0  0  0
   -3.3933    2.8208    0.4955 C   0  0  0  0  0  0  0  0  0  0  0  0
   -2.1177    2.0830    0.9309 C   0  0  0  0  0  0  0  0  0  0  0  0
   -2.2503    0.5550    0.8158 C   0  0  0  0  0  0  0  0  0  0  0  0
   -1.0025   -0.1991    1.3610 C   0  0  0  0  0  0  0  0  0  0  0  0
   -0.1252   -0.8494    0.3228 N   0  0  0  0  0  0  0  0  0  0  0  0
   -0.8544   -1.9005   -0.4841 C   0  0  0  0  0  0  0  0  0  0  0  0
   -1.9466   -2.7233    0.2306 C   0  0  0  0  0  0  0  0  0  0  0  0
    1.1023   -1.4442    0.9681 C   0  0  0  0  0  0  0  0  0  0  0  0
    0.9082   -2.5910    1.9986 C   0  0  0  0  0  0  0  0  0  0  0  0
    1.1766   -3.9801    1.4132 C   0  0  0  0  0  0  0  0  0  0  0  0
    0.3619    0.1720   -0.6800 C   0  0  0  0  0  0  0  0  0  0  0  0
    1.2558    1.3337   -0.1420 C   0  0  0  0  0  0  0  0  0  0  0  0
    2.7474    1.1823   -0.4981 C   0  0  0  0  0  0  0  0  0  0  0  0
    3.0393    1.5580   -1.9591 C   0  0  0  0  0  0  0  0  0  0  0  0
    4.5243    1.4106   -2.2779 C   0  0  0  0  0  0  0  0  0  0  0  0
   -4.4683    3.4347   -1.2831 H   0  0  0  0  0  0  0  0  0  0  0  0
   -2.7059    3.1625   -1.5471 H   0  0  0  0  0  0  0  0  0  0  0  0
   -3.8338    1.7558   -1.3612 H   0  0  0  0  0  0  0  0  0  0  0  0
   -3.3072    3.8839    0.8088 H   0  0  0  0  0  0  0  0  0  0  0  0
   -4.2811    2.3912    1.0084 H   0  0  0  0  0  0  0  0  0  0  0  0
   -1.2621    2.4468    0.3298 H   0  0  0  0  0  0  0  0  0  0  0  0
   -1.9166    2.3447    1.9928 H   0  0  0  0  0  0  0  0  0  0  0  0
   -2.4792    0.2661   -0.2272 H   0  0  0  0  0  0  0  0  0  0  0  0
   -3.1335    0.2489    1.4195 H   0  0  0  0  0  0  0  0  0  0  0  0
   -0.4140    0.4689    2.0231 H   0  0  0  0  0  0  0  0  0  0  0  0
   -1.3874   -0.9561    2.0709 H   0  0  0  0  0  0  0  0  0  0  0  0
   -0.1291   -2.6058   -0.9465 H   0  0  0  0  0  0  0  0  0  0  0  0
   -1.3749   -1.4442   -1.3573 H   0  0  0  0  0  0  0  0  0  0  0  0
   -2.3132   -3.5062   -0.4665 H   0  0  0  0  0  0  0  0  0  0  0  0
   -1.5880   -3.2417    1.1334 H   0  0  0  0  0  0  0  0  0  0  0  0
   -2.8210   -2.0955    0.4935 H   0  0  0  0  0  0  0  0  0  0  0  0
    1.8149   -1.7934    0.1858 H   0  0  0  0  0  0  0  0  0  0  0  0
    1.6512   -0.6530    1.5219 H   0  0  0  0  0  0  0  0  0  0  0  0
    1.6579   -2.4495    2.8085 H   0  0  0  0  0  0  0  0  0  0  0  0
   -0.0631   -2.5700    2.5189 H   0  0  0  0  0  0  0  0  0  0  0  0
    2.2170   -4.0400    1.0287 H   0  0  0  0  0  0  0  0  0  0  0  0
    1.0547   -4.7451    2.2088 H   0  0  0  0  0  0  0  0  0  0  0  0
    0.4772   -4.2231    0.5911 H   0  0  0  0  0  0  0  0  0  0  0  0
    0.9093   -0.3475   -1.4994 H   0  0  0  0  0  0  0  0  0  0  0  0
   -0.4962    0.6448   -1.2046 H   0  0  0  0  0  0  0  0  0  0  0  0
    0.8975    2.2937   -0.5740 H   0  0  0  0  0  0  0  0  0  0  0  0
    1.1677    1.4636    0.9519 H   0  0  0  0  0  0  0  0  0  0  0  0
    3.3324    1.8593    0.1628 H   0  0  0  0  0  0  0  0  0  0  0  0
    3.0924    0.1465   -0.2994 H   0  0  0  0  0  0  0  0  0  0  0  0
    2.7381    2.6125   -2.1418 H   0  0  0  0  0  0  0  0  0  0  0  0
    2.4630    0.9069   -2.6495 H   0  0  0  0  0  0  0  0  0  0  0  0
    4.8477    0.3583   -2.1297 H   0  0  0  0  0  0  0  0  0  0  0  0
    5.1276    2.0758   -1.6240 H   0  0  0  0  0  0  0  0  0  0  0  0
    4.7072    1.6924   -3.3363 H   0  0  0  0  0  0  0  0  0  0  0  0
  1  2  1  0
  2  3  1  0
  3  4  1  0
  4  5  1  0
  5  6  1  0
  6  7  1  0
  7  8  1  0
  6  9  1  0
  9 10  1  0
 10 11  1  0
  6 12  1  0
 12 13  1  0
 13 14  1  0
 14 15  1  0
 15 16  1  0
  1 17  1  0
  1 18  1  0
  1 19  1  0
  2 20  1  0
  2 21  1  0
  3 22  1  0
  3 23  1  0
  4 24  1  0
  4 25  1  0
  5 26  1  0
  5 27  1  0
  7 28  1  0
  7 29  1  0
  8 30  1  0
  8 31  1  0
  8 32  1  0
  9 33  1  0
  9 34  1  0
 10 35  1  0
 10 36  1  0
 11 37  1  0
 11 38  1  0
 11 39  1  0
 12 40  1  0
 12 41  1  0
 13 42  1  0
 13 43  1  0
 14 44  1  0
 14 45  1  0
 15 46  1  0
 15 47  1  0
 16 48  1  0
 16 49  1  0
 16 50  1  0
M  CHG  1   6   1
M  END
