119_CCCCC[N+](CC)(CCCC)CCCC
     RDKit          3D

 50 49  0  0  0  0  0  0  0  0999 V2000
    3.6937   -1.7554   -1.4367 C   0  0  0  0  0  0  0  0  0  0  0  0
    3.8817   -0.4941   -0.6051 C   0  0  0  0  0  0  0  0  0  0  0  0
    3.1032    0.7054   -1.1538 C   0  0  0  0  0  0  0  0  0  0  0  0
    1.7915    1.0124   -0.4145 C   0  0  0  0  0  0  0  0  0  0  0  0
    0.7504   -0.0936   -0.5460 C   0  0  0  0  0  0  0  0  0  0  0  0
   -0.5831    0.1514    0.2322 N   0  0  0  0  0  0  0  0  0  0  0  0
   -0.3272    0.0242    1.7508 C   0  0  0  0  0  0  0  0  0  0  0  0
   -1.6001   -0.0144    2.5841 C   0  0  0  0  0  0  0  0  0  0  0  0
   -1.5990   -0.9425   -0.2648 C   0  0  0  0  0  0  0  0  0  0  0  0
   -1.1468   -2.3847   -0.0200 C   0  0  0  0  0  0  0  0  0  0  0  0
   -2.2423   -3.3666   -0.4462 C   0  0  0  0  0  0  0  0  0  0  0  0
   -1.8159   -4.8090   -0.2238 C   0  0  0  0  0  0  0  0  0  0  0  0
   -1.2280    1.5169   -0.1761 C   0  0  0  0  0  0  0  0  0  0  0  0
   -0.7939    2.7336    0.6502 C   0  0  0  0  0  0  0  0  0  0  0  0
   -1.3620    4.0462    0.0970 C   0  0  0  0  0  0  0  0  0  0  0  0
   -0.7419    4.4622   -1.2284 C   0  0  0  0  0  0  0  0  0  0  0  0
    2.6482   -2.0707   -1.4735 H   0  0  0  0  0  0  0  0  0  0  0  0
    4.0373   -1.5981   -2.4643 H   0  0  0  0  0  0  0  0  0  0  0  0
    4.2783   -2.5768   -1.0102 H   0  0  0  0  0  0  0  0  0  0  0  0
    3.6173   -0.6894    0.4401 H   0  0  0  0  0  0  0  0  0  0  0  0
    4.9511   -0.2492   -0.6167 H   0  0  0  0  0  0  0  0  0  0  0  0
    2.9095    0.5884   -2.2268 H   0  0  0  0  0  0  0  0  0  0  0  0
    3.7403    1.5939   -1.0530 H   0  0  0  0  0  0  0  0  0  0  0  0
    1.4039    1.9367   -0.8535 H   0  0  0  0  0  0  0  0  0  0  0  0
    2.0204    1.2108    0.6375 H   0  0  0  0  0  0  0  0  0  0  0  0
    0.4822   -0.2325   -1.5998 H   0  0  0  0  0  0  0  0  0  0  0  0
    1.1570   -1.0291   -0.1553 H   0  0  0  0  0  0  0  0  0  0  0  0
    0.3043    0.8634    2.0542 H   0  0  0  0  0  0  0  0  0  0  0  0
    0.2549   -0.8890    1.9140 H   0  0  0  0  0  0  0  0  0  0  0  0
   -2.2884    0.8001    2.3466 H   0  0  0  0  0  0  0  0  0  0  0  0
   -1.3431    0.0664    3.6457 H   0  0  0  0  0  0  0  0  0  0  0  0
   -2.1359   -0.9601    2.4609 H   0  0  0  0  0  0  0  0  0  0  0  0
   -2.5548   -0.7460    0.2330 H   0  0  0  0  0  0  0  0  0  0  0  0
   -1.7403   -0.7664   -1.3387 H   0  0  0  0  0  0  0  0  0  0  0  0
   -0.9163   -2.5532    1.0362 H   0  0  0  0  0  0  0  0  0  0  0  0
   -0.2419   -2.6085   -0.5943 H   0  0  0  0  0  0  0  0  0  0  0  0
   -2.4806   -3.2214   -1.5064 H   0  0  0  0  0  0  0  0  0  0  0  0
   -3.1588   -3.1716    0.1230 H   0  0  0  0  0  0  0  0  0  0  0  0
   -2.6128   -5.4920   -0.5343 H   0  0  0  0  0  0  0  0  0  0  0  0
   -0.9190   -5.0470   -0.8046 H   0  0  0  0  0  0  0  0  0  0  0  0
   -1.6008   -4.9960    0.8331 H   0  0  0  0  0  0  0  0  0  0  0  0
   -1.0186    1.6415   -1.2433 H   0  0  0  0  0  0  0  0  0  0  0  0
   -2.3129    1.4018   -0.0651 H   0  0  0  0  0  0  0  0  0  0  0  0
    0.2904    2.8261    0.7299 H   0  0  0  0  0  0  0  0  0  0  0  0
   -1.1681    2.6349    1.6746 H   0  0  0  0  0  0  0  0  0  0  0  0
   -2.4497    3.9683   -0.0136 H   0  0  0  0  0  0  0  0  0  0  0  0
   -1.1744    4.8406    0.8296 H   0  0  0  0  0  0  0  0  0  0  0  0
    0.3480    4.5248   -1.1496 H   0  0  0  0  0  0  0  0  0  0  0  0
   -0.9907    3.7600   -2.0289 H   0  0  0  0  0  0  0  0  0  0  0  0
   -1.1165    5.4473   -1.5246 H   0  0  0  0  0  0  0  0  0  0  0  0
  1  2  1  0
  2  3  1  0
  3  4  1  0
  4  5  1  0
  5  6  1  0
  6  7  1  0
  7  8  1  0
  6  9  1  0
  9 10  1  0
 10 11  1  0
 11 12  1  0
  6 13  1  0
 13 14  1  0
 14 15  1  0
 15 16  1  0
  1 17  1  0
  1 18  1  0
  1 19  1  0
  2 20  1  0
  2 21  1  0
  3 22  1  0
  3 23  1  0
  4 24  1  0
  4 25  1  0
  5 26  1  0
  5 27  1  0
  7 28  1  0
  7 29  1  0
  8 30  1  0
  8 31  1  0
  8 32  1  0
  9 33  1  0
  9 34  1  0
 10 35  1  0
 10 36  1  0
 11 37  1  0
 11 38  1  0
 12 39  1  0
 12 40  1  0
 12 41  1  0
 13 42  1  0
 13 43  1  0
 14 44  1  0
 14 45  1  0
 15 46  1  0
 15 47  1  0
 16 48  1  0
 16 49  1  0
 16 50  1  0
M  CHG  1   6   1
M  END
