129_CCCCCCCCC[N+](C)(C)CCCCC
     RDKit          3D

 53 52  0  0  0  0  0  0  0  0999 V2000
    5.7603    2.0855    0.9878 C   0  0  0  0  0  0  0  0  0  0  0  0
    5.0149    3.0963    0.1191 C   0  0  0  0  0  0  0  0  0  0  0  0
    4.1509    2.4356   -0.9682 C   0  0  0  0  0  0  0  0  0  0  0  0
    2.9558    1.6375   -0.4056 C   0  0  0  0  0  0  0  0  0  0  0  0
    3.2206    0.1215   -0.3975 C   0  0  0  0  0  0  0  0  0  0  0  0
    2.1872   -0.6684    0.4279 C   0  0  0  0  0  0  0  0  0  0  0  0
    0.7264   -0.5349   -0.0440 C   0  0  0  0  0  0  0  0  0  0  0  0
    0.4610   -1.2390   -1.3852 C   0  0  0  0  0  0  0  0  0  0  0  0
   -0.9035   -0.8987   -2.0544 C   0  0  0  0  0  0  0  0  0  0  0  0
   -2.1613   -1.4328   -1.4157 N   0  0  0  0  0  0  0  0  0  0  0  0
   -1.9467   -2.7880   -0.8459 C   0  0  0  0  0  0  0  0  0  0  0  0
   -3.1842   -1.5482   -2.4915 C   0  0  0  0  0  0  0  0  0  0  0  0
   -2.6555   -0.4577   -0.3867 C   0  0  0  0  0  0  0  0  0  0  0  0
   -3.7783   -0.9790    0.5473 C   0  0  0  0  0  0  0  0  0  0  0  0
   -4.4030    0.1368    1.4066 C   0  0  0  0  0  0  0  0  0  0  0  0
   -3.4236    0.8576    2.3511 C   0  0  0  0  0  0  0  0  0  0  0  0
   -2.7557   -0.0820    3.3546 C   0  0  0  0  0  0  0  0  0  0  0  0
    5.0477    1.5158    1.6201 H   0  0  0  0  0  0  0  0  0  0  0  0
    6.4625    2.6230    1.6593 H   0  0  0  0  0  0  0  0  0  0  0  0
    6.3440    1.3840    0.3546 H   0  0  0  0  0  0  0  0  0  0  0  0
    4.3833    3.7450    0.7643 H   0  0  0  0  0  0  0  0  0  0  0  0
    5.7648    3.7490   -0.3782 H   0  0  0  0  0  0  0  0  0  0  0  0
    4.7856    1.8015   -1.6260 H   0  0  0  0  0  0  0  0  0  0  0  0
    3.7517    3.2512   -1.6105 H   0  0  0  0  0  0  0  0  0  0  0  0
    2.6959    1.9899    0.6168 H   0  0  0  0  0  0  0  0  0  0  0  0
    2.0760    1.8336   -1.0557 H   0  0  0  0  0  0  0  0  0  0  0  0
    3.2619   -0.2566   -1.4398 H   0  0  0  0  0  0  0  0  0  0  0  0
    4.2183   -0.0786    0.0455 H   0  0  0  0  0  0  0  0  0  0  0  0
    2.2471   -0.3250    1.4840 H   0  0  0  0  0  0  0  0  0  0  0  0
    2.4729   -1.7430    0.4235 H   0  0  0  0  0  0  0  0  0  0  0  0
    0.1060   -1.0172    0.7385 H   0  0  0  0  0  0  0  0  0  0  0  0
    0.4347    0.5343   -0.0991 H   0  0  0  0  0  0  0  0  0  0  0  0
    0.6019   -2.3340   -1.2743 H   0  0  0  0  0  0  0  0  0  0  0  0
    1.2369   -0.9135   -2.1077 H   0  0  0  0  0  0  0  0  0  0  0  0
   -0.9690    0.2064   -2.1816 H   0  0  0  0  0  0  0  0  0  0  0  0
   -0.8057   -1.2943   -3.0925 H   0  0  0  0  0  0  0  0  0  0  0  0
   -1.3367   -2.7457    0.0810 H   0  0  0  0  0  0  0  0  0  0  0  0
   -1.4411   -3.4526   -1.5814 H   0  0  0  0  0  0  0  0  0  0  0  0
   -2.9093   -3.2806   -0.5848 H   0  0  0  0  0  0  0  0  0  0  0  0
   -3.3720   -0.5632   -2.9755 H   0  0  0  0  0  0  0  0  0  0  0  0
   -4.1526   -1.9350   -2.1140 H   0  0  0  0  0  0  0  0  0  0  0  0
   -2.8557   -2.2579   -3.2845 H   0  0  0  0  0  0  0  0  0  0  0  0
   -1.8293   -0.1337    0.2642 H   0  0  0  0  0  0  0  0  0  0  0  0
   -3.0153    0.4710   -0.8869 H   0  0  0  0  0  0  0  0  0  0  0  0
   -4.6007   -1.4258   -0.0443 H   0  0  0  0  0  0  0  0  0  0  0  0
   -3.3871   -1.7748    1.2147 H   0  0  0  0  0  0  0  0  0  0  0  0
   -4.8666    0.8917    0.7349 H   0  0  0  0  0  0  0  0  0  0  0  0
   -5.2246   -0.3035    2.0130 H   0  0  0  0  0  0  0  0  0  0  0  0
   -2.6477    1.4001    1.7712 H   0  0  0  0  0  0  0  0  0  0  0  0
   -3.9948    1.6233    2.9195 H   0  0  0  0  0  0  0  0  0  0  0  0
   -3.5187   -0.6893    3.8863 H   0  0  0  0  0  0  0  0  0  0  0  0
   -2.1944    0.5161    4.1029 H   0  0  0  0  0  0  0  0  0  0  0  0
   -2.0355   -0.7536    2.8425 H   0  0  0  0  0  0  0  0  0  0  0  0
  1  2  1  0
  2  3  1  0
  3  4  1  0
  4  5  1  0
  5  6  1  0
  6  7  1  0
  7  8  1  0
  8  9  1  0
  9 10  1  0
 10 11  1  0
 10 12  1  0
 10 13  1  0
 13 14  1  0
 14 15  1  0
 15 16  1  0
 16 17  1  0
  1 18  1  0
  1 19  1  0
  1 20  1  0
  2 21  1  0
  2 22  1  0
  3 23  1  0
  3 24  1  0
  4 25  1  0
  4 26  1  0
  5 27  1  0
  5 28  1  0
  6 29  1  0
  6 30  1  0
  7 31  1  0
  7 32  1  0
  8 33  1  0
  8 34  1  0
  9 35  1  0
  9 36  1  0
 11 37  1  0
 11 38  1  0
 11 39  1  0
 12 40  1  0
 12 41  1  0
 12 42  1  0
 13 43  1  0
 13 44  1  0
 14 45  1  0
 14 46  1  0
 15 47  1  0
 15 48  1  0
 16 49  1  0
 16 50  1  0
 17 51  1  0
 17 52  1  0
 17 53  1  0
M  CHG  1  10   1
M  END
