130_CCCCCCCCC[N+](C)(CC)CCCC
     RDKit          3D

 53 52  0  0  0  0  0  0  0  0999 V2000
    7.5055   -0.1056   -0.7708 C   0  0  0  0  0  0  0  0  0  0  0  0
    6.7072   -0.8743    0.2821 C   0  0  0  0  0  0  0  0  0  0  0  0
    5.1895   -0.6804    0.1388 C   0  0  0  0  0  0  0  0  0  0  0  0
    4.7301    0.7191    0.5828 C   0  0  0  0  0  0  0  0  0  0  0  0
    3.2141    0.9191    0.4249 C   0  0  0  0  0  0  0  0  0  0  0  0
    2.3986    0.1046    1.4451 C   0  0  0  0  0  0  0  0  0  0  0  0
    0.9180    0.5167    1.4831 C   0  0  0  0  0  0  0  0  0  0  0  0
    0.1588    0.1213    0.2059 C   0  0  0  0  0  0  0  0  0  0  0  0
   -1.3496    0.4496    0.3418 C   0  0  0  0  0  0  0  0  0  0  0  0
   -2.2110    0.0489   -0.8232 N   0  0  0  0  0  0  0  0  0  0  0  0
   -1.6398    0.6106   -2.0793 C   0  0  0  0  0  0  0  0  0  0  0  0
   -2.2673   -1.4487   -0.9195 C   0  0  0  0  0  0  0  0  0  0  0  0
   -3.2879   -2.0073   -1.9276 C   0  0  0  0  0  0  0  0  0  0  0  0
   -3.5717    0.6620   -0.6480 C   0  0  0  0  0  0  0  0  0  0  0  0
   -4.3476    0.2092    0.6133 C   0  0  0  0  0  0  0  0  0  0  0  0
   -5.7704    0.7827    0.6096 C   0  0  0  0  0  0  0  0  0  0  0  0
   -6.5396    0.3632    1.8592 C   0  0  0  0  0  0  0  0  0  0  0  0
    7.4197    0.9887   -0.6107 H   0  0  0  0  0  0  0  0  0  0  0  0
    8.5783   -0.3814   -0.6932 H   0  0  0  0  0  0  0  0  0  0  0  0
    7.1495   -0.3602   -1.7918 H   0  0  0  0  0  0  0  0  0  0  0  0
    7.0387   -0.5691    1.2985 H   0  0  0  0  0  0  0  0  0  0  0  0
    6.9348   -1.9563    0.1664 H   0  0  0  0  0  0  0  0  0  0  0  0
    4.8838   -0.8665   -0.9142 H   0  0  0  0  0  0  0  0  0  0  0  0
    4.6946   -1.4448    0.7741 H   0  0  0  0  0  0  0  0  0  0  0  0
    5.2343    1.4850   -0.0432 H   0  0  0  0  0  0  0  0  0  0  0  0
    5.0261    0.8996    1.6394 H   0  0  0  0  0  0  0  0  0  0  0  0
    2.9960    2.0001    0.5683 H   0  0  0  0  0  0  0  0  0  0  0  0
    2.9154    0.6479   -0.6102 H   0  0  0  0  0  0  0  0  0  0  0  0
    2.8230    0.2654    2.4602 H   0  0  0  0  0  0  0  0  0  0  0  0
    2.4700   -0.9801    1.2163 H   0  0  0  0  0  0  0  0  0  0  0  0
    0.8369    1.6137    1.6479 H   0  0  0  0  0  0  0  0  0  0  0  0
    0.4465    0.0111    2.3542 H   0  0  0  0  0  0  0  0  0  0  0  0
    0.5905    0.6873   -0.6437 H   0  0  0  0  0  0  0  0  0  0  0  0
    0.3069   -0.9638    0.0332 H   0  0  0  0  0  0  0  0  0  0  0  0
   -1.7064   -0.0522    1.2679 H   0  0  0  0  0  0  0  0  0  0  0  0
   -1.4359    1.5463    0.5213 H   0  0  0  0  0  0  0  0  0  0  0  0
   -1.3767    1.6851   -1.9538 H   0  0  0  0  0  0  0  0  0  0  0  0
   -2.3592    0.5523   -2.9246 H   0  0  0  0  0  0  0  0  0  0  0  0
   -0.7268    0.0638   -2.4011 H   0  0  0  0  0  0  0  0  0  0  0  0
   -2.4816   -1.9025    0.0728 H   0  0  0  0  0  0  0  0  0  0  0  0
   -1.2789   -1.8552   -1.2239 H   0  0  0  0  0  0  0  0  0  0  0  0
   -4.3299   -1.8186   -1.5989 H   0  0  0  0  0  0  0  0  0  0  0  0
   -3.1615   -3.1086   -1.9957 H   0  0  0  0  0  0  0  0  0  0  0  0
   -3.1307   -1.5890   -2.9416 H   0  0  0  0  0  0  0  0  0  0  0  0
   -4.2062    0.4653   -1.5408 H   0  0  0  0  0  0  0  0  0  0  0  0
   -3.4809    1.7725   -0.6027 H   0  0  0  0  0  0  0  0  0  0  0  0
   -4.4180   -0.8962    0.6589 H   0  0  0  0  0  0  0  0  0  0  0  0
   -3.8326    0.5727    1.5271 H   0  0  0  0  0  0  0  0  0  0  0  0
   -5.7275    1.8931    0.5700 H   0  0  0  0  0  0  0  0  0  0  0  0
   -6.3189    0.4194   -0.2868 H   0  0  0  0  0  0  0  0  0  0  0  0
   -7.5636    0.7915    1.8265 H   0  0  0  0  0  0  0  0  0  0  0  0
   -6.0276    0.7369    2.7715 H   0  0  0  0  0  0  0  0  0  0  0  0
   -6.6192   -0.7436    1.9101 H   0  0  0  0  0  0  0  0  0  0  0  0
  1  2  1  0
  2  3  1  0
  3  4  1  0
  4  5  1  0
  5  6  1  0
  6  7  1  0
  7  8  1  0
  8  9  1  0
  9 10  1  0
 10 11  1  0
 10 12  1  0
 12 13  1  0
 10 14  1  0
 14 15  1  0
 15 16  1  0
 16 17  1  0
  1 18  1  0
  1 19  1  0
  1 20  1  0
  2 21  1  0
  2 22  1  0
  3 23  1  0
  3 24  1  0
  4 25  1  0
  4 26  1  0
  5 27  1  0
  5 28  1  0
  6 29  1  0
  6 30  1  0
  7 31  1  0
  7 32  1  0
  8 33  1  0
  8 34  1  0
  9 35  1  0
  9 36  1  0
 11 37  1  0
 11 38  1  0
 11 39  1  0
 12 40  1  0
 12 41  1  0
 13 42  1  0
 13 43  1  0
 13 44  1  0
 14 45  1  0
 14 46  1  0
 15 47  1  0
 15 48  1  0
 16 49  1  0
 16 50  1  0
 17 51  1  0
 17 52  1  0
 17 53  1  0
M  CHG  1  10   1
M  END
