134_CCCCCCCC[N+](C)(CC)CCCCC
     RDKit          3D

 53 52  0  0  0  0  0  0  0  0999 V2000
    5.3700    2.8518    1.1362 C   0  0  0  0  0  0  0  0  0  0  0  0
    4.6837    1.8521    0.2178 C   0  0  0  0  0  0  0  0  0  0  0  0
    4.9229    0.4148    0.6805 C   0  0  0  0  0  0  0  0  0  0  0  0
    4.3540   -0.6377   -0.2759 C   0  0  0  0  0  0  0  0  0  0  0  0
    2.8450   -0.5655   -0.5347 C   0  0  0  0  0  0  0  0  0  0  0  0
    2.0014   -0.7427    0.7303 C   0  0  0  0  0  0  0  0  0  0  0  0
    0.4893   -0.6738    0.4696 C   0  0  0  0  0  0  0  0  0  0  0  0
   -0.0099   -1.8216   -0.4034 C   0  0  0  0  0  0  0  0  0  0  0  0
   -1.5609   -1.9671   -0.4797 N   0  0  0  0  0  0  0  0  0  0  0  0
   -1.7888   -3.1316   -1.4773 C   0  0  0  0  0  0  0  0  0  0  0  0
   -2.1197   -2.3754    0.8996 C   0  0  0  0  0  0  0  0  0  0  0  0
   -3.5789   -2.8070    0.8641 C   0  0  0  0  0  0  0  0  0  0  0  0
   -2.2271   -0.7131   -1.0975 C   0  0  0  0  0  0  0  0  0  0  0  0
   -2.5986    0.3902   -0.1031 C   0  0  0  0  0  0  0  0  0  0  0  0
   -3.0906    1.6371   -0.8466 C   0  0  0  0  0  0  0  0  0  0  0  0
   -3.4866    2.7466    0.1276 C   0  0  0  0  0  0  0  0  0  0  0  0
   -3.9739    3.9851   -0.6071 C   0  0  0  0  0  0  0  0  0  0  0  0
    6.4527    2.6911    1.1525 H   0  0  0  0  0  0  0  0  0  0  0  0
    4.9937    2.7655    2.1605 H   0  0  0  0  0  0  0  0  0  0  0  0
    5.1838    3.8735    0.7906 H   0  0  0  0  0  0  0  0  0  0  0  0
    5.0614    1.9833   -0.8027 H   0  0  0  0  0  0  0  0  0  0  0  0
    3.6111    2.0731    0.2009 H   0  0  0  0  0  0  0  0  0  0  0  0
    4.5095    0.2734    1.6857 H   0  0  0  0  0  0  0  0  0  0  0  0
    6.0032    0.2421    0.7683 H   0  0  0  0  0  0  0  0  0  0  0  0
    4.8725   -0.5544   -1.2394 H   0  0  0  0  0  0  0  0  0  0  0  0
    4.5984   -1.6319    0.1188 H   0  0  0  0  0  0  0  0  0  0  0  0
    2.5917    0.3828   -1.0220 H   0  0  0  0  0  0  0  0  0  0  0  0
    2.5987   -1.3560   -1.2530 H   0  0  0  0  0  0  0  0  0  0  0  0
    2.2475    0.0473    1.4488 H   0  0  0  0  0  0  0  0  0  0  0  0
    2.2481   -1.6974    1.2104 H   0  0  0  0  0  0  0  0  0  0  0  0
    0.2712    0.2853   -0.0116 H   0  0  0  0  0  0  0  0  0  0  0  0
   -0.0081   -0.6804    1.4438 H   0  0  0  0  0  0  0  0  0  0  0  0
    0.3721   -2.7806   -0.0328 H   0  0  0  0  0  0  0  0  0  0  0  0
    0.3384   -1.6885   -1.4341 H   0  0  0  0  0  0  0  0  0  0  0  0
   -1.2994   -2.8751   -2.4220 H   0  0  0  0  0  0  0  0  0  0  0  0
   -2.8616   -3.2558   -1.6451 H   0  0  0  0  0  0  0  0  0  0  0  0
   -1.3551   -4.0407   -1.0504 H   0  0  0  0  0  0  0  0  0  0  0  0
   -1.4998   -3.2015    1.2670 H   0  0  0  0  0  0  0  0  0  0  0  0
   -1.9918   -1.5293    1.5792 H   0  0  0  0  0  0  0  0  0  0  0  0
   -3.9500   -2.9225    1.8881 H   0  0  0  0  0  0  0  0  0  0  0  0
   -4.2225   -2.0836    0.3577 H   0  0  0  0  0  0  0  0  0  0  0  0
   -3.6990   -3.7780    0.3741 H   0  0  0  0  0  0  0  0  0  0  0  0
   -1.5429   -0.3432   -1.8700 H   0  0  0  0  0  0  0  0  0  0  0  0
   -3.1417   -1.0513   -1.5995 H   0  0  0  0  0  0  0  0  0  0  0  0
   -1.7587    0.6704    0.5342 H   0  0  0  0  0  0  0  0  0  0  0  0
   -3.3988    0.0491    0.5621 H   0  0  0  0  0  0  0  0  0  0  0  0
   -3.9509    1.3752   -1.4746 H   0  0  0  0  0  0  0  0  0  0  0  0
   -2.3004    2.0012   -1.5146 H   0  0  0  0  0  0  0  0  0  0  0  0
   -4.2789    2.3901    0.7961 H   0  0  0  0  0  0  0  0  0  0  0  0
   -2.6288    3.0150    0.7551 H   0  0  0  0  0  0  0  0  0  0  0  0
   -4.8521    3.7577   -1.2199 H   0  0  0  0  0  0  0  0  0  0  0  0
   -3.1929    4.3861   -1.2609 H   0  0  0  0  0  0  0  0  0  0  0  0
   -4.2518    4.7655    0.1083 H   0  0  0  0  0  0  0  0  0  0  0  0
  1  2  1  0
  2  3  1  0
  3  4  1  0
  4  5  1  0
  5  6  1  0
  6  7  1  0
  7  8  1  0
  8  9  1  0
  9 10  1  0
  9 11  1  0
 11 12  1  0
  9 13  1  0
 13 14  1  0
 14 15  1  0
 15 16  1  0
 16 17  1  0
  1 18  1  0
  1 19  1  0
  1 20  1  0
  2 21  1  0
  2 22  1  0
  3 23  1  0
  3 24  1  0
  4 25  1  0
  4 26  1  0
  5 27  1  0
  5 28  1  0
  6 29  1  0
  6 30  1  0
  7 31  1  0
  7 32  1  0
  8 33  1  0
  8 34  1  0
 10 35  1  0
 10 36  1  0
 10 37  1  0
 11 38  1  0
 11 39  1  0
 12 40  1  0
 12 41  1  0
 12 42  1  0
 13 43  1  0
 13 44  1  0
 14 45  1  0
 14 46  1  0
 15 47  1  0
 15 48  1  0
 16 49  1  0
 16 50  1  0
 17 51  1  0
 17 52  1  0
 17 53  1  0
M  CHG  1   9   1
M  END
