139_CCC[N+](C)(CCC)CCC
     RDKit          3D

 35 34  0  0  0  0  0  0  0  0999 V2000
   -1.5443    2.8698    0.9178 C   0  0  0  0  0  0  0  0  0  0  0  0
   -0.7899    1.5477    0.9569 C   0  0  0  0  0  0  0  0  0  0  0  0
   -0.6048    0.9909   -0.4537 C   0  0  0  0  0  0  0  0  0  0  0  0
    0.1541   -0.3523   -0.4938 N   0  0  0  0  0  0  0  0  0  0  0  0
    0.2665   -0.7905   -1.9626 C   0  0  0  0  0  0  0  0  0  0  0  0
   -0.5684   -1.4724    0.3099 C   0  0  0  0  0  0  0  0  0  0  0  0
   -2.0319   -1.6871   -0.0769 C   0  0  0  0  0  0  0  0  0  0  0  0
   -2.6411   -2.8181    0.7419 C   0  0  0  0  0  0  0  0  0  0  0  0
    1.5852   -0.2496    0.1098 C   0  0  0  0  0  0  0  0  0  0  0  0
    2.4498    0.8578   -0.4935 C   0  0  0  0  0  0  0  0  0  0  0  0
    3.8353    0.8595    0.1399 C   0  0  0  0  0  0  0  0  0  0  0  0
   -1.6731    3.2626    1.9312 H   0  0  0  0  0  0  0  0  0  0  0  0
   -0.9982    3.6157    0.3313 H   0  0  0  0  0  0  0  0  0  0  0  0
   -2.5370    2.7419    0.4743 H   0  0  0  0  0  0  0  0  0  0  0  0
   -1.3533    0.8502    1.5841 H   0  0  0  0  0  0  0  0  0  0  0  0
    0.1760    1.7185    1.4420 H   0  0  0  0  0  0  0  0  0  0  0  0
   -0.0507    1.6963   -1.0826 H   0  0  0  0  0  0  0  0  0  0  0  0
   -1.5730    0.8319   -0.9411 H   0  0  0  0  0  0  0  0  0  0  0  0
    0.8033   -1.7424   -2.0022 H   0  0  0  0  0  0  0  0  0  0  0  0
   -0.7374   -0.8942   -2.3803 H   0  0  0  0  0  0  0  0  0  0  0  0
    0.8011   -0.0206   -2.5233 H   0  0  0  0  0  0  0  0  0  0  0  0
   -0.4881   -1.2114    1.3711 H   0  0  0  0  0  0  0  0  0  0  0  0
    0.0077   -2.3919    0.1474 H   0  0  0  0  0  0  0  0  0  0  0  0
   -2.6231   -0.7841    0.1021 H   0  0  0  0  0  0  0  0  0  0  0  0
   -2.1293   -1.9426   -1.1359 H   0  0  0  0  0  0  0  0  0  0  0  0
   -2.1081   -3.7586    0.5694 H   0  0  0  0  0  0  0  0  0  0  0  0
   -2.6034   -2.5917    1.8123 H   0  0  0  0  0  0  0  0  0  0  0  0
   -3.6892   -2.9656    0.4629 H   0  0  0  0  0  0  0  0  0  0  0  0
    2.0575   -1.2280   -0.0431 H   0  0  0  0  0  0  0  0  0  0  0  0
    1.4703   -0.0994    1.1891 H   0  0  0  0  0  0  0  0  0  0  0  0
    2.5688    0.7252   -1.5726 H   0  0  0  0  0  0  0  0  0  0  0  0
    2.0014    1.8419   -0.3277 H   0  0  0  0  0  0  0  0  0  0  0  0
    3.7726    1.0288    1.2197 H   0  0  0  0  0  0  0  0  0  0  0  0
    4.3458   -0.0938   -0.0305 H   0  0  0  0  0  0  0  0  0  0  0  0
    4.4489    1.6555   -0.2935 H   0  0  0  0  0  0  0  0  0  0  0  0
  1  2  1  0
  2  3  1  0
  3  4  1  0
  4  5  1  0
  4  6  1  0
  6  7  1  0
  7  8  1  0
  4  9  1  0
  9 10  1  0
 10 11  1  0
  1 12  1  0
  1 13  1  0
  1 14  1  0
  2 15  1  0
  2 16  1  0
  3 17  1  0
  3 18  1  0
  5 19  1  0
  5 20  1  0
  5 21  1  0
  6 22  1  0
  6 23  1  0
  7 24  1  0
  7 25  1  0
  8 26  1  0
  8 27  1  0
  8 28  1  0
  9 29  1  0
  9 30  1  0
 10 31  1  0
 10 32  1  0
 11 33  1  0
 11 34  1  0
 11 35  1  0
M  CHG  1   4   1
M  END
