140_CCCCCCC[N+](C)(CCC)CCCCC
     RDKit          3D

 53 52  0  0  0  0  0  0  0  0999 V2000
    6.0137    1.2860    0.2364 C   0  0  0  0  0  0  0  0  0  0  0  0
    4.5325    1.6524    0.2539 C   0  0  0  0  0  0  0  0  0  0  0  0
    3.7859    0.9928   -0.9144 C   0  0  0  0  0  0  0  0  0  0  0  0
    2.3295    1.4741   -1.0423 C   0  0  0  0  0  0  0  0  0  0  0  0
    1.4338    1.1600    0.1695 C   0  0  0  0  0  0  0  0  0  0  0  0
    1.2965   -0.3465    0.4446 C   0  0  0  0  0  0  0  0  0  0  0  0
    0.2233   -0.6517    1.5317 C   0  0  0  0  0  0  0  0  0  0  0  0
   -1.0067   -1.3764    1.0565 N   0  0  0  0  0  0  0  0  0  0  0  0
   -1.8612   -1.5994    2.2555 C   0  0  0  0  0  0  0  0  0  0  0  0
   -0.5887   -2.7004    0.4564 C   0  0  0  0  0  0  0  0  0  0  0  0
   -1.5932   -3.8885    0.5146 C   0  0  0  0  0  0  0  0  0  0  0  0
   -2.7952   -3.7650   -0.4208 C   0  0  0  0  0  0  0  0  0  0  0  0
   -1.7424   -0.5637    0.0283 C   0  0  0  0  0  0  0  0  0  0  0  0
   -2.3885    0.7506    0.5431 C   0  0  0  0  0  0  0  0  0  0  0  0
   -3.0636    1.5486   -0.5867 C   0  0  0  0  0  0  0  0  0  0  0  0
   -2.0571    2.3246   -1.4493 C   0  0  0  0  0  0  0  0  0  0  0  0
   -2.7700    3.1463   -2.5192 C   0  0  0  0  0  0  0  0  0  0  0  0
    6.1393    0.1850    0.3148 H   0  0  0  0  0  0  0  0  0  0  0  0
    6.4896    1.6441   -0.7013 H   0  0  0  0  0  0  0  0  0  0  0  0
    6.5253    1.7643    1.0982 H   0  0  0  0  0  0  0  0  0  0  0  0
    4.4347    2.7579    0.1887 H   0  0  0  0  0  0  0  0  0  0  0  0
    4.1017    1.3133    1.2197 H   0  0  0  0  0  0  0  0  0  0  0  0
    4.3076    1.2473   -1.8631 H   0  0  0  0  0  0  0  0  0  0  0  0
    3.8190   -0.1126   -0.8124 H   0  0  0  0  0  0  0  0  0  0  0  0
    2.3271    2.5735   -1.2082 H   0  0  0  0  0  0  0  0  0  0  0  0
    1.8816    1.0107   -1.9484 H   0  0  0  0  0  0  0  0  0  0  0  0
    1.8130    1.6785    1.0754 H   0  0  0  0  0  0  0  0  0  0  0  0
    0.4322    1.5805   -0.0461 H   0  0  0  0  0  0  0  0  0  0  0  0
    2.2744   -0.7226    0.8150 H   0  0  0  0  0  0  0  0  0  0  0  0
    1.1024   -0.8737   -0.5084 H   0  0  0  0  0  0  0  0  0  0  0  0
    0.7235   -1.2592    2.3223 H   0  0  0  0  0  0  0  0  0  0  0  0
   -0.0443    0.2852    2.0669 H   0  0  0  0  0  0  0  0  0  0  0  0
   -1.9973   -0.6679    2.8478 H   0  0  0  0  0  0  0  0  0  0  0  0
   -1.3954   -2.3378    2.9459 H   0  0  0  0  0  0  0  0  0  0  0  0
   -2.8750   -1.9567    1.9750 H   0  0  0  0  0  0  0  0  0  0  0  0
   -0.2935   -2.5780   -0.6091 H   0  0  0  0  0  0  0  0  0  0  0  0
    0.3267   -3.0766    0.9688 H   0  0  0  0  0  0  0  0  0  0  0  0
   -1.9341   -4.1062    1.5472 H   0  0  0  0  0  0  0  0  0  0  0  0
   -1.0342   -4.7958    0.1955 H   0  0  0  0  0  0  0  0  0  0  0  0
   -2.4829   -3.3937   -1.4199 H   0  0  0  0  0  0  0  0  0  0  0  0
   -3.2613   -4.7645   -0.5526 H   0  0  0  0  0  0  0  0  0  0  0  0
   -3.5677   -3.0994    0.0136 H   0  0  0  0  0  0  0  0  0  0  0  0
   -2.5632   -1.1568   -0.4130 H   0  0  0  0  0  0  0  0  0  0  0  0
   -1.0737   -0.3278   -0.8232 H   0  0  0  0  0  0  0  0  0  0  0  0
   -3.1850    0.5007    1.2751 H   0  0  0  0  0  0  0  0  0  0  0  0
   -1.6552    1.4013    1.0578 H   0  0  0  0  0  0  0  0  0  0  0  0
   -3.7648    2.2774   -0.1232 H   0  0  0  0  0  0  0  0  0  0  0  0
   -3.6665    0.8663   -1.2256 H   0  0  0  0  0  0  0  0  0  0  0  0
   -1.4664    3.0136   -0.8073 H   0  0  0  0  0  0  0  0  0  0  0  0
   -1.3581    1.6255   -1.9537 H   0  0  0  0  0  0  0  0  0  0  0  0
   -2.0204    3.6955   -3.1270 H   0  0  0  0  0  0  0  0  0  0  0  0
   -3.3536    2.4812   -3.1909 H   0  0  0  0  0  0  0  0  0  0  0  0
   -3.4540    3.8841   -2.0481 H   0  0  0  0  0  0  0  0  0  0  0  0
  1  2  1  0
  2  3  1  0
  3  4  1  0
  4  5  1  0
  5  6  1  0
  6  7  1  0
  7  8  1  0
  8  9  1  0
  8 10  1  0
 10 11  1  0
 11 12  1  0
  8 13  1  0
 13 14  1  0
 14 15  1  0
 15 16  1  0
 16 17  1  0
  1 18  1  0
  1 19  1  0
  1 20  1  0
  2 21  1  0
  2 22  1  0
  3 23  1  0
  3 24  1  0
  4 25  1  0
  4 26  1  0
  5 27  1  0
  5 28  1  0
  6 29  1  0
  6 30  1  0
  7 31  1  0
  7 32  1  0
  9 33  1  0
  9 34  1  0
  9 35  1  0
 10 36  1  0
 10 37  1  0
 11 38  1  0
 11 39  1  0
 12 40  1  0
 12 41  1  0
 12 42  1  0
 13 43  1  0
 13 44  1  0
 14 45  1  0
 14 46  1  0
 15 47  1  0
 15 48  1  0
 16 49  1  0
 16 50  1  0
 17 51  1  0
 17 52  1  0
 17 53  1  0
M  CHG  1   8   1
M  END
