145_CCCCCC[N+](C)(CCC)CCCCCC
     RDKit          3D

 53 52  0  0  0  0  0  0  0  0999 V2000
    2.9014    3.2226    0.2977 C   0  0  0  0  0  0  0  0  0  0  0  0
    2.2891    2.1179    1.1576 C   0  0  0  0  0  0  0  0  0  0  0  0
    3.1700    0.8597    1.2380 C   0  0  0  0  0  0  0  0  0  0  0  0
    3.4606    0.1766   -0.1140 C   0  0  0  0  0  0  0  0  0  0  0  0
    2.2215   -0.2459   -0.9291 C   0  0  0  0  0  0  0  0  0  0  0  0
    1.3593   -1.3182   -0.2065 C   0  0  0  0  0  0  0  0  0  0  0  0
    0.1598   -1.8656   -0.9511 N   0  0  0  0  0  0  0  0  0  0  0  0
    0.2932   -1.7102   -2.4296 C   0  0  0  0  0  0  0  0  0  0  0  0
    0.0601   -3.3551   -0.7214 C   0  0  0  0  0  0  0  0  0  0  0  0
   -0.4046   -3.8531    0.6770 C   0  0  0  0  0  0  0  0  0  0  0  0
    0.5985   -3.6478    1.8103 C   0  0  0  0  0  0  0  0  0  0  0  0
   -1.1165   -1.2188   -0.4918 C   0  0  0  0  0  0  0  0  0  0  0  0
   -1.2821    0.2746   -0.8523 C   0  0  0  0  0  0  0  0  0  0  0  0
   -2.5738    0.8424   -0.2484 C   0  0  0  0  0  0  0  0  0  0  0  0
   -2.7299    2.3329   -0.5864 C   0  0  0  0  0  0  0  0  0  0  0  0
   -4.0632    2.9139   -0.0913 C   0  0  0  0  0  0  0  0  0  0  0  0
   -4.1195    3.0514    1.4299 C   0  0  0  0  0  0  0  0  0  0  0  0
    3.9369    3.4460    0.6316 H   0  0  0  0  0  0  0  0  0  0  0  0
    2.9117    2.9260   -0.7717 H   0  0  0  0  0  0  0  0  0  0  0  0
    2.2912    4.1453    0.3933 H   0  0  0  0  0  0  0  0  0  0  0  0
    2.1567    2.5129    2.1881 H   0  0  0  0  0  0  0  0  0  0  0  0
    1.2795    1.8637    0.7790 H   0  0  0  0  0  0  0  0  0  0  0  0
    4.1420    1.1383    1.7005 H   0  0  0  0  0  0  0  0  0  0  0  0
    2.6975    0.1323    1.9309 H   0  0  0  0  0  0  0  0  0  0  0  0
    4.0815    0.8551   -0.7373 H   0  0  0  0  0  0  0  0  0  0  0  0
    4.0850   -0.7230    0.0790 H   0  0  0  0  0  0  0  0  0  0  0  0
    1.6294    0.6498   -1.1948 H   0  0  0  0  0  0  0  0  0  0  0  0
    2.6181   -0.6710   -1.8752 H   0  0  0  0  0  0  0  0  0  0  0  0
    1.0368   -0.8815    0.7603 H   0  0  0  0  0  0  0  0  0  0  0  0
    2.0713   -2.1328    0.0488 H   0  0  0  0  0  0  0  0  0  0  0  0
    1.1639   -2.2869   -2.8153 H   0  0  0  0  0  0  0  0  0  0  0  0
    0.4303   -0.6561   -2.7424 H   0  0  0  0  0  0  0  0  0  0  0  0
   -0.6159   -2.0771   -2.9577 H   0  0  0  0  0  0  0  0  0  0  0  0
    1.0256   -3.8542   -0.9686 H   0  0  0  0  0  0  0  0  0  0  0  0
   -0.6757   -3.7962   -1.4348 H   0  0  0  0  0  0  0  0  0  0  0  0
   -0.5606   -4.9509    0.5882 H   0  0  0  0  0  0  0  0  0  0  0  0
   -1.3953   -3.4452    0.9614 H   0  0  0  0  0  0  0  0  0  0  0  0
    1.6163   -3.9642    1.4992 H   0  0  0  0  0  0  0  0  0  0  0  0
    0.6061   -2.5935    2.1471 H   0  0  0  0  0  0  0  0  0  0  0  0
    0.2968   -4.2672    2.6813 H   0  0  0  0  0  0  0  0  0  0  0  0
   -1.1975   -1.2836    0.6153 H   0  0  0  0  0  0  0  0  0  0  0  0
   -1.9921   -1.7660   -0.9121 H   0  0  0  0  0  0  0  0  0  0  0  0
   -0.4346    0.8562   -0.4484 H   0  0  0  0  0  0  0  0  0  0  0  0
   -1.3330    0.4067   -1.9527 H   0  0  0  0  0  0  0  0  0  0  0  0
   -2.5434    0.7135    0.8546 H   0  0  0  0  0  0  0  0  0  0  0  0
   -3.4451    0.2785   -0.6484 H   0  0  0  0  0  0  0  0  0  0  0  0
   -2.6915    2.4566   -1.6910 H   0  0  0  0  0  0  0  0  0  0  0  0
   -1.8837    2.9106   -0.1534 H   0  0  0  0  0  0  0  0  0  0  0  0
   -4.9094    2.2832   -0.4405 H   0  0  0  0  0  0  0  0  0  0  0  0
   -4.1919    3.9244   -0.5364 H   0  0  0  0  0  0  0  0  0  0  0  0
   -4.1305    2.0537    1.9153 H   0  0  0  0  0  0  0  0  0  0  0  0
   -5.0501    3.5846    1.7174 H   0  0  0  0  0  0  0  0  0  0  0  0
   -3.2499    3.6346    1.8005 H   0  0  0  0  0  0  0  0  0  0  0  0
  1  2  1  0
  2  3  1  0
  3  4  1  0
  4  5  1  0
  5  6  1  0
  6  7  1  0
  7  8  1  0
  7  9  1  0
  9 10  1  0
 10 11  1  0
  7 12  1  0
 12 13  1  0
 13 14  1  0
 14 15  1  0
 15 16  1  0
 16 17  1  0
  1 18  1  0
  1 19  1  0
  1 20  1  0
  2 21  1  0
  2 22  1  0
  3 23  1  0
  3 24  1  0
  4 25  1  0
  4 26  1  0
  5 27  1  0
  5 28  1  0
  6 29  1  0
  6 30  1  0
  8 31  1  0
  8 32  1  0
  8 33  1  0
  9 34  1  0
  9 35  1  0
 10 36  1  0
 10 37  1  0
 11 38  1  0
 11 39  1  0
 11 40  1  0
 12 41  1  0
 12 42  1  0
 13 43  1  0
 13 44  1  0
 14 45  1  0
 14 46  1  0
 15 47  1  0
 15 48  1  0
 16 49  1  0
 16 50  1  0
 17 51  1  0
 17 52  1  0
 17 53  1  0
M  CHG  1   7   1
M  END
