146_CCCCCC[N+](C)(CCCC)CCCCC
     RDKit          3D

 53 52  0  0  0  0  0  0  0  0999 V2000
   -6.4738   -0.1304    0.2887 C   0  0  0  0  0  0  0  0  0  0  0  0
   -5.4491   -1.2458    0.4270 C   0  0  0  0  0  0  0  0  0  0  0  0
   -4.0077   -0.7436    0.5475 C   0  0  0  0  0  0  0  0  0  0  0  0
   -3.4936   -0.0699   -0.7278 C   0  0  0  0  0  0  0  0  0  0  0  0
   -2.0525    0.4473   -0.6064 C   0  0  0  0  0  0  0  0  0  0  0  0
   -1.0347   -0.6809   -0.4424 C   0  0  0  0  0  0  0  0  0  0  0  0
    0.4598   -0.2303   -0.4965 N   0  0  0  0  0  0  0  0  0  0  0  0
    0.8178    0.2002   -1.9181 C   0  0  0  0  0  0  0  0  0  0  0  0
    0.7518    0.8499    0.5779 C   0  0  0  0  0  0  0  0  0  0  0  0
    0.6412    2.2925    0.0790 C   0  0  0  0  0  0  0  0  0  0  0  0
    0.7996    3.2766    1.2412 C   0  0  0  0  0  0  0  0  0  0  0  0
    0.7110    4.7186    0.7671 C   0  0  0  0  0  0  0  0  0  0  0  0
    1.2737   -1.5200   -0.1306 C   0  0  0  0  0  0  0  0  0  0  0  0
    2.7758   -1.4179   -0.4208 C   0  0  0  0  0  0  0  0  0  0  0  0
    3.5116   -2.6401    0.1403 C   0  0  0  0  0  0  0  0  0  0  0  0
    4.9987   -2.6719   -0.2192 C   0  0  0  0  0  0  0  0  0  0  0  0
    5.8000   -1.5414    0.4077 C   0  0  0  0  0  0  0  0  0  0  0  0
   -6.3847    0.5895    1.1084 H   0  0  0  0  0  0  0  0  0  0  0  0
   -6.3598    0.4057   -0.6578 H   0  0  0  0  0  0  0  0  0  0  0  0
   -7.4862   -0.5464    0.3123 H   0  0  0  0  0  0  0  0  0  0  0  0
   -5.5365   -1.9304   -0.4246 H   0  0  0  0  0  0  0  0  0  0  0  0
   -5.6891   -1.8264    1.3259 H   0  0  0  0  0  0  0  0  0  0  0  0
   -3.9299   -0.0483    1.3920 H   0  0  0  0  0  0  0  0  0  0  0  0
   -3.3759   -1.6062    0.7870 H   0  0  0  0  0  0  0  0  0  0  0  0
   -3.5635   -0.7680   -1.5707 H   0  0  0  0  0  0  0  0  0  0  0  0
   -4.1320    0.7867   -0.9721 H   0  0  0  0  0  0  0  0  0  0  0  0
   -1.8423    1.0280   -1.5092 H   0  0  0  0  0  0  0  0  0  0  0  0
   -2.0039    1.1335    0.2456 H   0  0  0  0  0  0  0  0  0  0  0  0
   -1.1671   -1.1737    0.5273 H   0  0  0  0  0  0  0  0  0  0  0  0
   -1.1622   -1.4295   -1.2337 H   0  0  0  0  0  0  0  0  0  0  0  0
    0.7011   -0.6639   -2.5789 H   0  0  0  0  0  0  0  0  0  0  0  0
    1.8503    0.5585   -1.9294 H   0  0  0  0  0  0  0  0  0  0  0  0
    0.1514    1.0027   -2.2380 H   0  0  0  0  0  0  0  0  0  0  0  0
    1.7683    0.6885    0.9469 H   0  0  0  0  0  0  0  0  0  0  0  0
    0.0727    0.6563    1.4163 H   0  0  0  0  0  0  0  0  0  0  0  0
   -0.3163    2.4788   -0.4134 H   0  0  0  0  0  0  0  0  0  0  0  0
    1.4276    2.4944   -0.6575 H   0  0  0  0  0  0  0  0  0  0  0  0
    0.0192    3.0964    1.9897 H   0  0  0  0  0  0  0  0  0  0  0  0
    1.7660    3.1189    1.7341 H   0  0  0  0  0  0  0  0  0  0  0  0
    1.4981    4.9415    0.0397 H   0  0  0  0  0  0  0  0  0  0  0  0
    0.8263    5.4034    1.6130 H   0  0  0  0  0  0  0  0  0  0  0  0
   -0.2576    4.9184    0.2978 H   0  0  0  0  0  0  0  0  0  0  0  0
    1.0847   -1.7134    0.9322 H   0  0  0  0  0  0  0  0  0  0  0  0
    0.8456   -2.3424   -0.7168 H   0  0  0  0  0  0  0  0  0  0  0  0
    2.9465   -1.3781   -1.5025 H   0  0  0  0  0  0  0  0  0  0  0  0
    3.2004   -0.5075    0.0091 H   0  0  0  0  0  0  0  0  0  0  0  0
    3.3970   -2.6719    1.2307 H   0  0  0  0  0  0  0  0  0  0  0  0
    3.0446   -3.5514   -0.2537 H   0  0  0  0  0  0  0  0  0  0  0  0
    5.4175   -3.6260    0.1227 H   0  0  0  0  0  0  0  0  0  0  0  0
    5.1204   -2.6451   -1.3083 H   0  0  0  0  0  0  0  0  0  0  0  0
    5.5040   -0.5682    0.0053 H   0  0  0  0  0  0  0  0  0  0  0  0
    6.8660   -1.6755    0.1972 H   0  0  0  0  0  0  0  0  0  0  0  0
    5.6693   -1.5221    1.4942 H   0  0  0  0  0  0  0  0  0  0  0  0
  1  2  1  0
  2  3  1  0
  3  4  1  0
  4  5  1  0
  5  6  1  0
  6  7  1  0
  7  8  1  0
  7  9  1  0
  9 10  1  0
 10 11  1  0
 11 12  1  0
  7 13  1  0
 13 14  1  0
 14 15  1  0
 15 16  1  0
 16 17  1  0
  1 18  1  0
  1 19  1  0
  1 20  1  0
  2 21  1  0
  2 22  1  0
  3 23  1  0
  3 24  1  0
  4 25  1  0
  4 26  1  0
  5 27  1  0
  5 28  1  0
  6 29  1  0
  6 30  1  0
  8 31  1  0
  8 32  1  0
  8 33  1  0
  9 34  1  0
  9 35  1  0
 10 36  1  0
 10 37  1  0
 11 38  1  0
 11 39  1  0
 12 40  1  0
 12 41  1  0
 12 42  1  0
 13 43  1  0
 13 44  1  0
 14 45  1  0
 14 46  1  0
 15 47  1  0
 15 48  1  0
 16 49  1  0
 16 50  1  0
 17 51  1  0
 17 52  1  0
 17 53  1  0
M  CHG  1   7   1
M  END
