151_CCCCC[N+](C)(CCCCC)CCCCC
     RDKit          3D

 53 52  0  0  0  0  0  0  0  0999 V2000
   -2.8592    4.0670    0.7839 C   0  0  0  0  0  0  0  0  0  0  0  0
   -1.3957    4.4297    0.5864 C   0  0  0  0  0  0  0  0  0  0  0  0
   -0.7715    3.7980   -0.6605 C   0  0  0  0  0  0  0  0  0  0  0  0
   -0.7789    2.2644   -0.7024 C   0  0  0  0  0  0  0  0  0  0  0  0
   -0.0329    1.6429    0.4813 C   0  0  0  0  0  0  0  0  0  0  0  0
    0.2031    0.1136    0.3411 N   0  0  0  0  0  0  0  0  0  0  0  0
    0.8633   -0.3523    1.6467 C   0  0  0  0  0  0  0  0  0  0  0  0
    1.0694   -0.2613   -0.8848 C   0  0  0  0  0  0  0  0  0  0  0  0
    2.2852    0.6253   -1.1858 C   0  0  0  0  0  0  0  0  0  0  0  0
    3.4934    0.5565   -0.2500 C   0  0  0  0  0  0  0  0  0  0  0  0
    4.0757   -0.8480   -0.0943 C   0  0  0  0  0  0  0  0  0  0  0  0
    5.3339   -0.8341    0.7606 C   0  0  0  0  0  0  0  0  0  0  0  0
   -1.1877   -0.5865    0.2177 C   0  0  0  0  0  0  0  0  0  0  0  0
   -1.1193   -2.1157    0.2755 C   0  0  0  0  0  0  0  0  0  0  0  0
   -2.5163   -2.7209    0.1001 C   0  0  0  0  0  0  0  0  0  0  0  0
   -2.4729   -4.2478    0.1582 C   0  0  0  0  0  0  0  0  0  0  0  0
   -3.8573   -4.8513   -0.0160 C   0  0  0  0  0  0  0  0  0  0  0  0
   -2.9828    3.0019    1.0008 H   0  0  0  0  0  0  0  0  0  0  0  0
   -3.4481    4.3107   -0.1059 H   0  0  0  0  0  0  0  0  0  0  0  0
   -3.2740    4.6267    1.6284 H   0  0  0  0  0  0  0  0  0  0  0  0
   -1.3165    5.5198    0.4954 H   0  0  0  0  0  0  0  0  0  0  0  0
   -0.8261    4.1531    1.4804 H   0  0  0  0  0  0  0  0  0  0  0  0
    0.2643    4.1495   -0.7463 H   0  0  0  0  0  0  0  0  0  0  0  0
   -1.2972    4.1710   -1.5485 H   0  0  0  0  0  0  0  0  0  0  0  0
   -0.3282    1.9594   -1.6521 H   0  0  0  0  0  0  0  0  0  0  0  0
   -1.8165    1.9160   -0.7274 H   0  0  0  0  0  0  0  0  0  0  0  0
    0.9464    2.1105    0.6272 H   0  0  0  0  0  0  0  0  0  0  0  0
   -0.6067    1.7800    1.4057 H   0  0  0  0  0  0  0  0  0  0  0  0
    1.2349   -1.3713    1.5176 H   0  0  0  0  0  0  0  0  0  0  0  0
    1.6819    0.3217    1.8977 H   0  0  0  0  0  0  0  0  0  0  0  0
    0.1137   -0.3142    2.4434 H   0  0  0  0  0  0  0  0  0  0  0  0
    1.3720   -1.3061   -0.7660 H   0  0  0  0  0  0  0  0  0  0  0  0
    0.3998   -0.2197   -1.7522 H   0  0  0  0  0  0  0  0  0  0  0  0
    1.9861    1.6726   -1.2949 H   0  0  0  0  0  0  0  0  0  0  0  0
    2.6408    0.3340   -2.1842 H   0  0  0  0  0  0  0  0  0  0  0  0
    4.2708    1.2103   -0.6676 H   0  0  0  0  0  0  0  0  0  0  0  0
    3.2519    0.9828    0.7265 H   0  0  0  0  0  0  0  0  0  0  0  0
    4.3165   -1.2620   -1.0803 H   0  0  0  0  0  0  0  0  0  0  0  0
    3.3473   -1.5188    0.3705 H   0  0  0  0  0  0  0  0  0  0  0  0
    6.1084   -0.2052    0.3101 H   0  0  0  0  0  0  0  0  0  0  0  0
    5.7353   -1.8474    0.8604 H   0  0  0  0  0  0  0  0  0  0  0  0
    5.1211   -0.4524    1.7644 H   0  0  0  0  0  0  0  0  0  0  0  0
   -1.8107   -0.1993    1.0328 H   0  0  0  0  0  0  0  0  0  0  0  0
   -1.6221   -0.2726   -0.7371 H   0  0  0  0  0  0  0  0  0  0  0  0
   -0.4660   -2.5053   -0.5116 H   0  0  0  0  0  0  0  0  0  0  0  0
   -0.7144   -2.4493    1.2366 H   0  0  0  0  0  0  0  0  0  0  0  0
   -3.1818   -2.3421    0.8855 H   0  0  0  0  0  0  0  0  0  0  0  0
   -2.9366   -2.4022   -0.8617 H   0  0  0  0  0  0  0  0  0  0  0  0
   -1.8118   -4.6318   -0.6275 H   0  0  0  0  0  0  0  0  0  0  0  0
   -2.0575   -4.5724    1.1193 H   0  0  0  0  0  0  0  0  0  0  0  0
   -4.2883   -4.5720   -0.9828 H   0  0  0  0  0  0  0  0  0  0  0  0
   -3.8031   -5.9436    0.0288 H   0  0  0  0  0  0  0  0  0  0  0  0
   -4.5354   -4.5121    0.7736 H   0  0  0  0  0  0  0  0  0  0  0  0
  1  2  1  0
  2  3  1  0
  3  4  1  0
  4  5  1  0
  5  6  1  0
  6  7  1  0
  6  8  1  0
  8  9  1  0
  9 10  1  0
 10 11  1  0
 11 12  1  0
  6 13  1  0
 13 14  1  0
 14 15  1  0
 15 16  1  0
 16 17  1  0
  1 18  1  0
  1 19  1  0
  1 20  1  0
  2 21  1  0
  2 22  1  0
  3 23  1  0
  3 24  1  0
  4 25  1  0
  4 26  1  0
  5 27  1  0
  5 28  1  0
  7 29  1  0
  7 30  1  0
  7 31  1  0
  8 32  1  0
  8 33  1  0
  9 34  1  0
  9 35  1  0
 10 36  1  0
 10 37  1  0
 11 38  1  0
 11 39  1  0
 12 40  1  0
 12 41  1  0
 12 42  1  0
 13 43  1  0
 13 44  1  0
 14 45  1  0
 14 46  1  0
 15 47  1  0
 15 48  1  0
 16 49  1  0
 16 50  1  0
 17 51  1  0
 17 52  1  0
 17 53  1  0
M  CHG  1   6   1
M  END
