159_CCCCCCCCCCCC[N+](C)(CC)CC
     RDKit          3D

 56 55  0  0  0  0  0  0  0  0999 V2000
    5.6908    2.6288   -0.0472 C   0  0  0  0  0  0  0  0  0  0  0  0
    5.7800    1.2583   -0.7172 C   0  0  0  0  0  0  0  0  0  0  0  0
    6.0190    0.1152    0.2848 C   0  0  0  0  0  0  0  0  0  0  0  0
    4.9122   -0.0647    1.3437 C   0  0  0  0  0  0  0  0  0  0  0  0
    3.5008   -0.2951    0.7753 C   0  0  0  0  0  0  0  0  0  0  0  0
    3.4071   -1.5636   -0.0902 C   0  0  0  0  0  0  0  0  0  0  0  0
    1.9567   -1.9286   -0.4426 C   0  0  0  0  0  0  0  0  0  0  0  0
    1.3119   -0.9150   -1.4039 C   0  0  0  0  0  0  0  0  0  0  0  0
   -0.0333   -1.4026   -1.9712 C   0  0  0  0  0  0  0  0  0  0  0  0
   -1.1249   -1.6600   -0.9162 C   0  0  0  0  0  0  0  0  0  0  0  0
   -1.4864   -0.4039   -0.1030 C   0  0  0  0  0  0  0  0  0  0  0  0
   -2.7314   -0.6325    0.8036 C   0  0  0  0  0  0  0  0  0  0  0  0
   -3.9993    0.0630    0.3925 N   0  0  0  0  0  0  0  0  0  0  0  0
   -4.3868   -0.4077   -0.9644 C   0  0  0  0  0  0  0  0  0  0  0  0
   -5.0586   -0.3644    1.3717 C   0  0  0  0  0  0  0  0  0  0  0  0
   -6.4188    0.3505    1.2617 C   0  0  0  0  0  0  0  0  0  0  0  0
   -3.8452    1.5563    0.3519 C   0  0  0  0  0  0  0  0  0  0  0  0
   -3.3651    2.2006    1.6627 C   0  0  0  0  0  0  0  0  0  0  0  0
    6.5772    2.8040    0.5988 H   0  0  0  0  0  0  0  0  0  0  0  0
    5.6587    3.4191   -0.8265 H   0  0  0  0  0  0  0  0  0  0  0  0
    4.7663    2.7076    0.5616 H   0  0  0  0  0  0  0  0  0  0  0  0
    6.6325    1.2757   -1.4304 H   0  0  0  0  0  0  0  0  0  0  0  0
    4.8635    1.0709   -1.3149 H   0  0  0  0  0  0  0  0  0  0  0  0
    6.1483   -0.8333   -0.2785 H   0  0  0  0  0  0  0  0  0  0  0  0
    6.9803    0.2987    0.8125 H   0  0  0  0  0  0  0  0  0  0  0  0
    4.8897    0.8258    2.0074 H   0  0  0  0  0  0  0  0  0  0  0  0
    5.1829   -0.9288    1.9888 H   0  0  0  0  0  0  0  0  0  0  0  0
    3.1801    0.5946    0.1958 H   0  0  0  0  0  0  0  0  0  0  0  0
    2.8029   -0.3923    1.6355 H   0  0  0  0  0  0  0  0  0  0  0  0
    3.9894   -1.4328   -1.0273 H   0  0  0  0  0  0  0  0  0  0  0  0
    3.8505   -2.4164    0.4688 H   0  0  0  0  0  0  0  0  0  0  0  0
    1.9609   -2.9313   -0.9232 H   0  0  0  0  0  0  0  0  0  0  0  0
    1.3617   -2.0025    0.4928 H   0  0  0  0  0  0  0  0  0  0  0  0
    1.1728    0.0630   -0.8988 H   0  0  0  0  0  0  0  0  0  0  0  0
    1.9974   -0.7445   -2.2626 H   0  0  0  0  0  0  0  0  0  0  0  0
    0.1357   -2.3414   -2.5423 H   0  0  0  0  0  0  0  0  0  0  0  0
   -0.4064   -0.6466   -2.6962 H   0  0  0  0  0  0  0  0  0  0  0  0
   -0.8101   -2.4756   -0.2312 H   0  0  0  0  0  0  0  0  0  0  0  0
   -2.0283   -2.0215   -1.4521 H   0  0  0  0  0  0  0  0  0  0  0  0
   -1.6022    0.4508   -0.7929 H   0  0  0  0  0  0  0  0  0  0  0  0
   -0.6270   -0.1582    0.5574 H   0  0  0  0  0  0  0  0  0  0  0  0
   -2.4538   -0.3389    1.8400 H   0  0  0  0  0  0  0  0  0  0  0  0
   -2.9152   -1.7295    0.8885 H   0  0  0  0  0  0  0  0  0  0  0  0
   -4.5345   -1.5106   -0.9842 H   0  0  0  0  0  0  0  0  0  0  0  0
   -5.3218    0.0741   -1.3168 H   0  0  0  0  0  0  0  0  0  0  0  0
   -3.6179   -0.1528   -1.7237 H   0  0  0  0  0  0  0  0  0  0  0  0
   -4.7050   -0.2310    2.4182 H   0  0  0  0  0  0  0  0  0  0  0  0
   -5.2537   -1.4570    1.2693 H   0  0  0  0  0  0  0  0  0  0  0  0
   -7.1345   -0.1362    1.9575 H   0  0  0  0  0  0  0  0  0  0  0  0
   -6.8506    0.2798    0.2450 H   0  0  0  0  0  0  0  0  0  0  0  0
   -6.3431    1.4130    1.5706 H   0  0  0  0  0  0  0  0  0  0  0  0
   -3.1475    1.8711   -0.4500 H   0  0  0  0  0  0  0  0  0  0  0  0
   -4.8012    2.0401    0.0584 H   0  0  0  0  0  0  0  0  0  0  0  0
   -2.3160    1.9184    1.8855 H   0  0  0  0  0  0  0  0  0  0  0  0
   -4.0190    1.9352    2.5166 H   0  0  0  0  0  0  0  0  0  0  0  0
   -3.3917    3.3051    1.5516 H   0  0  0  0  0  0  0  0  0  0  0  0
  1  2  1  0
  2  3  1  0
  3  4  1  0
  4  5  1  0
  5  6  1  0
  6  7  1  0
  7  8  1  0
  8  9  1  0
  9 10  1  0
 10 11  1  0
 11 12  1  0
 12 13  1  0
 13 14  1  0
 13 15  1  0
 15 16  1  0
 13 17  1  0
 17 18  1  0
  1 19  1  0
  1 20  1  0
  1 21  1  0
  2 22  1  0
  2 23  1  0
  3 24  1  0
  3 25  1  0
  4 26  1  0
  4 27  1  0
  5 28  1  0
  5 29  1  0
  6 30  1  0
  6 31  1  0
  7 32  1  0
  7 33  1  0
  8 34  1  0
  8 35  1  0
  9 36  1  0
  9 37  1  0
 10 38  1  0
 10 39  1  0
 11 40  1  0
 11 41  1  0
 12 42  1  0
 12 43  1  0
 14 44  1  0
 14 45  1  0
 14 46  1  0
 15 47  1  0
 15 48  1  0
 16 49  1  0
 16 50  1  0
 16 51  1  0
 17 52  1  0
 17 53  1  0
 18 54  1  0
 18 55  1  0
 18 56  1  0
M  CHG  1  13   1
M  END
