161_CCCCCCCCCCC[N+](C)(CC)CCC
     RDKit          3D

 56 55  0  0  0  0  0  0  0  0999 V2000
    7.4652    0.9065   -0.8595 C   0  0  0  0  0  0  0  0  0  0  0  0
    6.5213    1.4725    0.2014 C   0  0  0  0  0  0  0  0  0  0  0  0
    5.1823    0.7216    0.2692 C   0  0  0  0  0  0  0  0  0  0  0  0
    5.3152   -0.6614    0.9276 C   0  0  0  0  0  0  0  0  0  0  0  0
    3.9883   -1.4391    0.9450 C   0  0  0  0  0  0  0  0  0  0  0  0
    2.9202   -0.8170    1.8730 C   0  0  0  0  0  0  0  0  0  0  0  0
    1.8264   -0.0503    1.1085 C   0  0  0  0  0  0  0  0  0  0  0  0
    0.7913   -0.9931    0.4760 C   0  0  0  0  0  0  0  0  0  0  0  0
   -0.2865   -0.2006   -0.2736 C   0  0  0  0  0  0  0  0  0  0  0  0
   -1.3286   -1.1385   -0.9013 C   0  0  0  0  0  0  0  0  0  0  0  0
   -2.4165   -0.3670   -1.7034 C   0  0  0  0  0  0  0  0  0  0  0  0
   -3.7823   -0.2958   -1.0753 N   0  0  0  0  0  0  0  0  0  0  0  0
   -4.6368    0.5241   -1.9767 C   0  0  0  0  0  0  0  0  0  0  0  0
   -4.3425   -1.6922   -0.9911 C   0  0  0  0  0  0  0  0  0  0  0  0
   -5.8653   -1.7994   -0.7680 C   0  0  0  0  0  0  0  0  0  0  0  0
   -3.7435    0.3145    0.2971 C   0  0  0  0  0  0  0  0  0  0  0  0
   -3.2657    1.7934    0.3772 C   0  0  0  0  0  0  0  0  0  0  0  0
   -4.4195    2.7839    0.5456 C   0  0  0  0  0  0  0  0  0  0  0  0
    6.9620    0.8711   -1.8491 H   0  0  0  0  0  0  0  0  0  0  0  0
    7.8080   -0.1112   -0.5818 H   0  0  0  0  0  0  0  0  0  0  0  0
    8.3593    1.5597   -0.9426 H   0  0  0  0  0  0  0  0  0  0  0  0
    6.3148    2.5351   -0.0519 H   0  0  0  0  0  0  0  0  0  0  0  0
    7.0217    1.4559    1.1941 H   0  0  0  0  0  0  0  0  0  0  0  0
    4.4839    1.3406    0.8714 H   0  0  0  0  0  0  0  0  0  0  0  0
    4.7539    0.6200   -0.7521 H   0  0  0  0  0  0  0  0  0  0  0  0
    6.0509   -1.2702    0.3615 H   0  0  0  0  0  0  0  0  0  0  0  0
    5.6982   -0.5513    1.9659 H   0  0  0  0  0  0  0  0  0  0  0  0
    4.2093   -2.4652    1.3123 H   0  0  0  0  0  0  0  0  0  0  0  0
    3.6137   -1.5526   -0.0948 H   0  0  0  0  0  0  0  0  0  0  0  0
    3.3984   -0.1279    2.6031 H   0  0  0  0  0  0  0  0  0  0  0  0
    2.4453   -1.6203    2.4784 H   0  0  0  0  0  0  0  0  0  0  0  0
    1.3039    0.6193    1.8264 H   0  0  0  0  0  0  0  0  0  0  0  0
    2.2820    0.5899    0.3233 H   0  0  0  0  0  0  0  0  0  0  0  0
    1.2929   -1.6855   -0.2332 H   0  0  0  0  0  0  0  0  0  0  0  0
    0.3103   -1.5983    1.2758 H   0  0  0  0  0  0  0  0  0  0  0  0
   -0.7839    0.4908    0.4360 H   0  0  0  0  0  0  0  0  0  0  0  0
    0.1952    0.4027   -1.0745 H   0  0  0  0  0  0  0  0  0  0  0  0
   -0.7960   -1.8165   -1.6046 H   0  0  0  0  0  0  0  0  0  0  0  0
   -1.7543   -1.7879   -0.1138 H   0  0  0  0  0  0  0  0  0  0  0  0
   -2.0341    0.6427   -1.9641 H   0  0  0  0  0  0  0  0  0  0  0  0
   -2.4986   -0.8613   -2.6995 H   0  0  0  0  0  0  0  0  0  0  0  0
   -5.6206    0.7518   -1.5119 H   0  0  0  0  0  0  0  0  0  0  0  0
   -4.8198   -0.0024   -2.9404 H   0  0  0  0  0  0  0  0  0  0  0  0
   -4.1617    1.4976   -2.2263 H   0  0  0  0  0  0  0  0  0  0  0  0
   -3.8687   -2.2580   -0.1611 H   0  0  0  0  0  0  0  0  0  0  0  0
   -4.1212   -2.2610   -1.9229 H   0  0  0  0  0  0  0  0  0  0  0  0
   -6.4269   -1.4571   -1.6619 H   0  0  0  0  0  0  0  0  0  0  0  0
   -6.2019   -1.2356    0.1231 H   0  0  0  0  0  0  0  0  0  0  0  0
   -6.1309   -2.8657   -0.6069 H   0  0  0  0  0  0  0  0  0  0  0  0
   -4.7407    0.2506    0.7792 H   0  0  0  0  0  0  0  0  0  0  0  0
   -3.0900   -0.2883    0.9632 H   0  0  0  0  0  0  0  0  0  0  0  0
   -2.6125    1.9022    1.2704 H   0  0  0  0  0  0  0  0  0  0  0  0
   -2.6557    2.1003   -0.4921 H   0  0  0  0  0  0  0  0  0  0  0  0
   -4.0119    3.8121    0.6448 H   0  0  0  0  0  0  0  0  0  0  0  0
   -5.0968    2.7631   -0.3310 H   0  0  0  0  0  0  0  0  0  0  0  0
   -5.0006    2.5488    1.4627 H   0  0  0  0  0  0  0  0  0  0  0  0
  1  2  1  0
  2  3  1  0
  3  4  1  0
  4  5  1  0
  5  6  1  0
  6  7  1  0
  7  8  1  0
  8  9  1  0
  9 10  1  0
 10 11  1  0
 11 12  1  0
 12 13  1  0
 12 14  1  0
 14 15  1  0
 12 16  1  0
 16 17  1  0
 17 18  1  0
  1 19  1  0
  1 20  1  0
  1 21  1  0
  2 22  1  0
  2 23  1  0
  3 24  1  0
  3 25  1  0
  4 26  1  0
  4 27  1  0
  5 28  1  0
  5 29  1  0
  6 30  1  0
  6 31  1  0
  7 32  1  0
  7 33  1  0
  8 34  1  0
  8 35  1  0
  9 36  1  0
  9 37  1  0
 10 38  1  0
 10 39  1  0
 11 40  1  0
 11 41  1  0
 13 42  1  0
 13 43  1  0
 13 44  1  0
 14 45  1  0
 14 46  1  0
 15 47  1  0
 15 48  1  0
 15 49  1  0
 16 50  1  0
 16 51  1  0
 17 52  1  0
 17 53  1  0
 18 54  1  0
 18 55  1  0
 18 56  1  0
M  CHG  1  12   1
M  END
