165_CCCCCCCCCC[N+](C)(CCC)CCC
     RDKit          3D

 56 55  0  0  0  0  0  0  0  0999 V2000
    6.7608    1.8184    1.4191 C   0  0  0  0  0  0  0  0  0  0  0  0
    6.9542    1.0113    0.1450 C   0  0  0  0  0  0  0  0  0  0  0  0
    5.8731    1.2616   -0.9092 C   0  0  0  0  0  0  0  0  0  0  0  0
    4.4339    0.9574   -0.4781 C   0  0  0  0  0  0  0  0  0  0  0  0
    4.2106   -0.5082   -0.0967 C   0  0  0  0  0  0  0  0  0  0  0  0
    2.7703   -0.8123    0.3288 C   0  0  0  0  0  0  0  0  0  0  0  0
    1.7574   -0.6887   -0.8119 C   0  0  0  0  0  0  0  0  0  0  0  0
    0.3571   -1.1193   -0.3589 C   0  0  0  0  0  0  0  0  0  0  0  0
   -0.6575   -0.9766   -1.4954 C   0  0  0  0  0  0  0  0  0  0  0  0
   -2.0142   -1.6469   -1.2602 C   0  0  0  0  0  0  0  0  0  0  0  0
   -3.0866   -0.8794   -0.4142 N   0  0  0  0  0  0  0  0  0  0  0  0
   -2.7346   -0.9491    1.0631 C   0  0  0  0  0  0  0  0  0  0  0  0
   -3.2886    0.5528   -0.9705 C   0  0  0  0  0  0  0  0  0  0  0  0
   -2.4069    1.6478   -0.3623 C   0  0  0  0  0  0  0  0  0  0  0  0
   -3.0565    2.3795    0.8051 C   0  0  0  0  0  0  0  0  0  0  0  0
   -4.4122   -1.6969   -0.6652 C   0  0  0  0  0  0  0  0  0  0  0  0
   -5.5249   -1.5822    0.3852 C   0  0  0  0  0  0  0  0  0  0  0  0
   -6.2085   -0.2332    0.5161 C   0  0  0  0  0  0  0  0  0  0  0  0
    7.6166    1.6763    2.0870 H   0  0  0  0  0  0  0  0  0  0  0  0
    5.8636    1.5041    1.9602 H   0  0  0  0  0  0  0  0  0  0  0  0
    6.6772    2.8872    1.1986 H   0  0  0  0  0  0  0  0  0  0  0  0
    7.9255    1.2760   -0.2904 H   0  0  0  0  0  0  0  0  0  0  0  0
    7.0092   -0.0546    0.3912 H   0  0  0  0  0  0  0  0  0  0  0  0
    6.1110    0.6651   -1.7988 H   0  0  0  0  0  0  0  0  0  0  0  0
    5.9232    2.3122   -1.2219 H   0  0  0  0  0  0  0  0  0  0  0  0
    3.7793    1.2222   -1.3161 H   0  0  0  0  0  0  0  0  0  0  0  0
    4.1457    1.6075    0.3557 H   0  0  0  0  0  0  0  0  0  0  0  0
    4.8643   -0.7711    0.7426 H   0  0  0  0  0  0  0  0  0  0  0  0
    4.4921   -1.1574   -0.9344 H   0  0  0  0  0  0  0  0  0  0  0  0
    2.7407   -1.8365    0.7214 H   0  0  0  0  0  0  0  0  0  0  0  0
    2.4830   -0.1499    1.1544 H   0  0  0  0  0  0  0  0  0  0  0  0
    2.0786   -1.3103   -1.6562 H   0  0  0  0  0  0  0  0  0  0  0  0
    1.7133    0.3469   -1.1667 H   0  0  0  0  0  0  0  0  0  0  0  0
    0.0734   -0.5021    0.4950 H   0  0  0  0  0  0  0  0  0  0  0  0
    0.3883   -2.1609   -0.0180 H   0  0  0  0  0  0  0  0  0  0  0  0
   -0.2240   -1.4802   -2.3713 H   0  0  0  0  0  0  0  0  0  0  0  0
   -0.7585    0.0684   -1.7985 H   0  0  0  0  0  0  0  0  0  0  0  0
   -1.8839   -2.6319   -0.7954 H   0  0  0  0  0  0  0  0  0  0  0  0
   -2.4799   -1.8021   -2.2424 H   0  0  0  0  0  0  0  0  0  0  0  0
   -2.6463   -2.0016    1.3489 H   0  0  0  0  0  0  0  0  0  0  0  0
   -1.7962   -0.4345    1.2480 H   0  0  0  0  0  0  0  0  0  0  0  0
   -3.5199   -0.4639    1.6437 H   0  0  0  0  0  0  0  0  0  0  0  0
   -3.1065    0.4839   -2.0498 H   0  0  0  0  0  0  0  0  0  0  0  0
   -4.3398    0.8195   -0.8590 H   0  0  0  0  0  0  0  0  0  0  0  0
   -2.2285    2.3970   -1.1445 H   0  0  0  0  0  0  0  0  0  0  0  0
   -1.4210    1.2871   -0.0638 H   0  0  0  0  0  0  0  0  0  0  0  0
   -4.0261    2.7971    0.5152 H   0  0  0  0  0  0  0  0  0  0  0  0
   -3.2075    1.7290    1.6685 H   0  0  0  0  0  0  0  0  0  0  0  0
   -2.4185    3.2099    1.1255 H   0  0  0  0  0  0  0  0  0  0  0  0
   -4.1151   -2.7525   -0.7032 H   0  0  0  0  0  0  0  0  0  0  0  0
   -4.7744   -1.4158   -1.6616 H   0  0  0  0  0  0  0  0  0  0  0  0
   -5.1753   -1.9174    1.3676 H   0  0  0  0  0  0  0  0  0  0  0  0
   -6.3003   -2.3057    0.0991 H   0  0  0  0  0  0  0  0  0  0  0  0
   -7.0859   -0.3231    1.1655 H   0  0  0  0  0  0  0  0  0  0  0  0
   -6.5522    0.1320   -0.4565 H   0  0  0  0  0  0  0  0  0  0  0  0
   -5.5517    0.5141    0.9674 H   0  0  0  0  0  0  0  0  0  0  0  0
  1  2  1  0
  2  3  1  0
  3  4  1  0
  4  5  1  0
  5  6  1  0
  6  7  1  0
  7  8  1  0
  8  9  1  0
  9 10  1  0
 10 11  1  0
 11 12  1  0
 11 13  1  0
 13 14  1  0
 14 15  1  0
 11 16  1  0
 16 17  1  0
 17 18  1  0
  1 19  1  0
  1 20  1  0
  1 21  1  0
  2 22  1  0
  2 23  1  0
  3 24  1  0
  3 25  1  0
  4 26  1  0
  4 27  1  0
  5 28  1  0
  5 29  1  0
  6 30  1  0
  6 31  1  0
  7 32  1  0
  7 33  1  0
  8 34  1  0
  8 35  1  0
  9 36  1  0
  9 37  1  0
 10 38  1  0
 10 39  1  0
 12 40  1  0
 12 41  1  0
 12 42  1  0
 13 43  1  0
 13 44  1  0
 14 45  1  0
 14 46  1  0
 15 47  1  0
 15 48  1  0
 15 49  1  0
 16 50  1  0
 16 51  1  0
 17 52  1  0
 17 53  1  0
 18 54  1  0
 18 55  1  0
 18 56  1  0
M  CHG  1  11   1
M  END
