172_CCCCCCCC[N+](C)(C)CCCCCCC
     RDKit          3D

 56 55  0  0  0  0  0  0  0  0999 V2000
    7.8867    1.1398   -0.1405 C   0  0  0  0  0  0  0  0  0  0  0  0
    6.5054    1.7927   -0.1919 C   0  0  0  0  0  0  0  0  0  0  0  0
    5.3924    0.8043   -0.5738 C   0  0  0  0  0  0  0  0  0  0  0  0
    5.0592   -0.1756    0.5645 C   0  0  0  0  0  0  0  0  0  0  0  0
    3.9615   -1.1800    0.1771 C   0  0  0  0  0  0  0  0  0  0  0  0
    2.5698   -0.5338    0.0798 C   0  0  0  0  0  0  0  0  0  0  0  0
    1.4787   -1.5979   -0.1160 C   0  0  0  0  0  0  0  0  0  0  0  0
    0.1409   -1.0638   -0.7007 C   0  0  0  0  0  0  0  0  0  0  0  0
   -0.7359   -0.2271    0.1947 N   0  0  0  0  0  0  0  0  0  0  0  0
   -0.6831   -0.6528    1.6168 C   0  0  0  0  0  0  0  0  0  0  0  0
   -0.3059    1.1952    0.1191 C   0  0  0  0  0  0  0  0  0  0  0  0
   -2.1518   -0.2702   -0.3091 C   0  0  0  0  0  0  0  0  0  0  0  0
   -2.9396   -1.5744    0.0018 C   0  0  0  0  0  0  0  0  0  0  0  0
   -4.3156   -1.6048   -0.7026 C   0  0  0  0  0  0  0  0  0  0  0  0
   -5.5061   -1.3376    0.2392 C   0  0  0  0  0  0  0  0  0  0  0  0
   -5.5298    0.0639    0.8720 C   0  0  0  0  0  0  0  0  0  0  0  0
   -5.7455    1.1798   -0.1608 C   0  0  0  0  0  0  0  0  0  0  0  0
   -5.8520    2.5418    0.5186 C   0  0  0  0  0  0  0  0  0  0  0  0
    8.1062    0.6172   -1.0957 H   0  0  0  0  0  0  0  0  0  0  0  0
    7.9521    0.4187    0.6999 H   0  0  0  0  0  0  0  0  0  0  0  0
    8.6581    1.9227    0.0176 H   0  0  0  0  0  0  0  0  0  0  0  0
    6.5335    2.6008   -0.9548 H   0  0  0  0  0  0  0  0  0  0  0  0
    6.2790    2.2654    0.7886 H   0  0  0  0  0  0  0  0  0  0  0  0
    4.4883    1.4003   -0.8184 H   0  0  0  0  0  0  0  0  0  0  0  0
    5.6848    0.2426   -1.4880 H   0  0  0  0  0  0  0  0  0  0  0  0
    5.9680   -0.7589    0.8220 H   0  0  0  0  0  0  0  0  0  0  0  0
    4.7516    0.3871    1.4730 H   0  0  0  0  0  0  0  0  0  0  0  0
    3.9326   -1.9730    0.9567 H   0  0  0  0  0  0  0  0  0  0  0  0
    4.2226   -1.6666   -0.7883 H   0  0  0  0  0  0  0  0  0  0  0  0
    2.3803    0.0159    1.0241 H   0  0  0  0  0  0  0  0  0  0  0  0
    2.5501    0.1751   -0.7745 H   0  0  0  0  0  0  0  0  0  0  0  0
    1.8598   -2.3444   -0.8485 H   0  0  0  0  0  0  0  0  0  0  0  0
    1.3203   -2.1627    0.8259 H   0  0  0  0  0  0  0  0  0  0  0  0
   -0.4015   -1.9705   -1.0347 H   0  0  0  0  0  0  0  0  0  0  0  0
    0.3617   -0.5225   -1.6491 H   0  0  0  0  0  0  0  0  0  0  0  0
   -0.8273   -1.7507    1.7142 H   0  0  0  0  0  0  0  0  0  0  0  0
    0.2917   -0.3984    2.0854 H   0  0  0  0  0  0  0  0  0  0  0  0
   -1.4706   -0.1414    2.2150 H   0  0  0  0  0  0  0  0  0  0  0  0
   -0.9515    1.8460    0.7516 H   0  0  0  0  0  0  0  0  0  0  0  0
   -0.3607    1.5790   -0.9245 H   0  0  0  0  0  0  0  0  0  0  0  0
    0.7266    1.3446    0.4804 H   0  0  0  0  0  0  0  0  0  0  0  0
   -2.1571   -0.1056   -1.4117 H   0  0  0  0  0  0  0  0  0  0  0  0
   -2.7390    0.5689    0.1238 H   0  0  0  0  0  0  0  0  0  0  0  0
   -2.3680   -2.4617   -0.3334 H   0  0  0  0  0  0  0  0  0  0  0  0
   -3.0820   -1.6886    1.0971 H   0  0  0  0  0  0  0  0  0  0  0  0
   -4.3483   -0.9172   -1.5737 H   0  0  0  0  0  0  0  0  0  0  0  0
   -4.4624   -2.6235   -1.1244 H   0  0  0  0  0  0  0  0  0  0  0  0
   -5.4944   -2.0941    1.0541 H   0  0  0  0  0  0  0  0  0  0  0  0
   -6.4500   -1.4928   -0.3277 H   0  0  0  0  0  0  0  0  0  0  0  0
   -6.3696    0.0899    1.6007 H   0  0  0  0  0  0  0  0  0  0  0  0
   -4.5987    0.2426    1.4489 H   0  0  0  0  0  0  0  0  0  0  0  0
   -4.8983    1.2139   -0.8766 H   0  0  0  0  0  0  0  0  0  0  0  0
   -6.6804    0.9878   -0.7308 H   0  0  0  0  0  0  0  0  0  0  0  0
   -6.7136    2.5581    1.2196 H   0  0  0  0  0  0  0  0  0  0  0  0
   -6.0045    3.3295   -0.2490 H   0  0  0  0  0  0  0  0  0  0  0  0
   -4.9188    2.7668    1.0779 H   0  0  0  0  0  0  0  0  0  0  0  0
  1  2  1  0
  2  3  1  0
  3  4  1  0
  4  5  1  0
  5  6  1  0
  6  7  1  0
  7  8  1  0
  8  9  1  0
  9 10  1  0
  9 11  1  0
  9 12  1  0
 12 13  1  0
 13 14  1  0
 14 15  1  0
 15 16  1  0
 16 17  1  0
 17 18  1  0
  1 19  1  0
  1 20  1  0
  1 21  1  0
  2 22  1  0
  2 23  1  0
  3 24  1  0
  3 25  1  0
  4 26  1  0
  4 27  1  0
  5 28  1  0
  5 29  1  0
  6 30  1  0
  6 31  1  0
  7 32  1  0
  7 33  1  0
  8 34  1  0
  8 35  1  0
 10 36  1  0
 10 37  1  0
 10 38  1  0
 11 39  1  0
 11 40  1  0
 11 41  1  0
 12 42  1  0
 12 43  1  0
 13 44  1  0
 13 45  1  0
 14 46  1  0
 14 47  1  0
 15 48  1  0
 15 49  1  0
 16 50  1  0
 16 51  1  0
 17 52  1  0
 17 53  1  0
 18 54  1  0
 18 55  1  0
 18 56  1  0
M  CHG  1   9   1
M  END
