180_CCCCCCC[N+](C)(CCC)CCCCCC
     RDKit          3D

 56 55  0  0  0  0  0  0  0  0999 V2000
    7.0888    2.3251   -0.2336 C   0  0  0  0  0  0  0  0  0  0  0  0
    6.5544    2.1597    1.1888 C   0  0  0  0  0  0  0  0  0  0  0  0
    5.0249    2.2824    1.2672 C   0  0  0  0  0  0  0  0  0  0  0  0
    4.3035    1.0815    0.6375 C   0  0  0  0  0  0  0  0  0  0  0  0
    2.7871    1.1817    0.8448 C   0  0  0  0  0  0  0  0  0  0  0  0
    2.0610   -0.0093    0.2045 C   0  0  0  0  0  0  0  0  0  0  0  0
    0.5340    0.0762    0.4506 C   0  0  0  0  0  0  0  0  0  0  0  0
   -0.3040   -0.9037   -0.3234 N   0  0  0  0  0  0  0  0  0  0  0  0
   -0.2277   -0.5937   -1.7803 C   0  0  0  0  0  0  0  0  0  0  0  0
    0.2035   -2.2962   -0.0678 C   0  0  0  0  0  0  0  0  0  0  0  0
   -0.6195   -3.4529   -0.7048 C   0  0  0  0  0  0  0  0  0  0  0  0
   -1.4849   -4.1939    0.3162 C   0  0  0  0  0  0  0  0  0  0  0  0
   -1.7259   -0.8065    0.1512 C   0  0  0  0  0  0  0  0  0  0  0  0
   -2.3566    0.6096    0.0826 C   0  0  0  0  0  0  0  0  0  0  0  0
   -3.8745    0.5834    0.3354 C   0  0  0  0  0  0  0  0  0  0  0  0
   -4.6724    0.2147   -0.9283 C   0  0  0  0  0  0  0  0  0  0  0  0
   -6.1783    0.0795   -0.6548 C   0  0  0  0  0  0  0  0  0  0  0  0
   -6.8515    1.4213   -0.3676 C   0  0  0  0  0  0  0  0  0  0  0  0
    8.1987    2.3466   -0.2100 H   0  0  0  0  0  0  0  0  0  0  0  0
    6.7269    3.2770   -0.6771 H   0  0  0  0  0  0  0  0  0  0  0  0
    6.7743    1.4750   -0.8735 H   0  0  0  0  0  0  0  0  0  0  0  0
    6.8816    1.1794    1.5984 H   0  0  0  0  0  0  0  0  0  0  0  0
    7.0028    2.9548    1.8232 H   0  0  0  0  0  0  0  0  0  0  0  0
    4.7415    2.3492    2.3405 H   0  0  0  0  0  0  0  0  0  0  0  0
    4.6970    3.2233    0.7730 H   0  0  0  0  0  0  0  0  0  0  0  0
    4.6760    0.1417    1.1014 H   0  0  0  0  0  0  0  0  0  0  0  0
    4.5154    1.0480   -0.4525 H   0  0  0  0  0  0  0  0  0  0  0  0
    2.4181    2.1271    0.3892 H   0  0  0  0  0  0  0  0  0  0  0  0
    2.5648    1.2043    1.9346 H   0  0  0  0  0  0  0  0  0  0  0  0
    2.2803   -0.0141   -0.8833 H   0  0  0  0  0  0  0  0  0  0  0  0
    2.4645   -0.9387    0.6600 H   0  0  0  0  0  0  0  0  0  0  0  0
    0.3597   -0.0539    1.5436 H   0  0  0  0  0  0  0  0  0  0  0  0
    0.2300    1.1171    0.2033 H   0  0  0  0  0  0  0  0  0  0  0  0
   -0.2236    0.5014   -1.9709 H   0  0  0  0  0  0  0  0  0  0  0  0
   -1.0905   -1.0134   -2.3406 H   0  0  0  0  0  0  0  0  0  0  0  0
    0.6956   -1.0058   -2.2423 H   0  0  0  0  0  0  0  0  0  0  0  0
    0.3057   -2.4710    1.0282 H   0  0  0  0  0  0  0  0  0  0  0  0
    1.2314   -2.4047   -0.4780 H   0  0  0  0  0  0  0  0  0  0  0  0
   -1.2507   -3.1154   -1.5497 H   0  0  0  0  0  0  0  0  0  0  0  0
    0.0877   -4.1972   -1.1332 H   0  0  0  0  0  0  0  0  0  0  0  0
   -0.8478   -4.6319    1.1137 H   0  0  0  0  0  0  0  0  0  0  0  0
   -2.0293   -5.0189   -0.1898 H   0  0  0  0  0  0  0  0  0  0  0  0
   -2.2305   -3.5174    0.7797 H   0  0  0  0  0  0  0  0  0  0  0  0
   -1.7949   -1.1506    1.2087 H   0  0  0  0  0  0  0  0  0  0  0  0
   -2.3716   -1.4860   -0.4395 H   0  0  0  0  0  0  0  0  0  0  0  0
   -2.1573    1.0982   -0.8932 H   0  0  0  0  0  0  0  0  0  0  0  0
   -1.9070    1.2419    0.8777 H   0  0  0  0  0  0  0  0  0  0  0  0
   -4.1809    1.5986    0.6665 H   0  0  0  0  0  0  0  0  0  0  0  0
   -4.1094   -0.1247    1.1604 H   0  0  0  0  0  0  0  0  0  0  0  0
   -4.3151   -0.7579   -1.3259 H   0  0  0  0  0  0  0  0  0  0  0  0
   -4.5023    0.9790   -1.7181 H   0  0  0  0  0  0  0  0  0  0  0  0
   -6.6593   -0.3648   -1.5532 H   0  0  0  0  0  0  0  0  0  0  0  0
   -6.3518   -0.6146    0.1961 H   0  0  0  0  0  0  0  0  0  0  0  0
   -7.9503    1.2755   -0.3018 H   0  0  0  0  0  0  0  0  0  0  0  0
   -6.6399    2.1455   -1.1828 H   0  0  0  0  0  0  0  0  0  0  0  0
   -6.5013    1.8384    0.5991 H   0  0  0  0  0  0  0  0  0  0  0  0
  1  2  1  0
  2  3  1  0
  3  4  1  0
  4  5  1  0
  5  6  1  0
  6  7  1  0
  7  8  1  0
  8  9  1  0
  8 10  1  0
 10 11  1  0
 11 12  1  0
  8 13  1  0
 13 14  1  0
 14 15  1  0
 15 16  1  0
 16 17  1  0
 17 18  1  0
  1 19  1  0
  1 20  1  0
  1 21  1  0
  2 22  1  0
  2 23  1  0
  3 24  1  0
  3 25  1  0
  4 26  1  0
  4 27  1  0
  5 28  1  0
  5 29  1  0
  6 30  1  0
  6 31  1  0
  7 32  1  0
  7 33  1  0
  9 34  1  0
  9 35  1  0
  9 36  1  0
 10 37  1  0
 10 38  1  0
 11 39  1  0
 11 40  1  0
 12 41  1  0
 12 42  1  0
 12 43  1  0
 13 44  1  0
 13 45  1  0
 14 46  1  0
 14 47  1  0
 15 48  1  0
 15 49  1  0
 16 50  1  0
 16 51  1  0
 17 52  1  0
 17 53  1  0
 18 54  1  0
 18 55  1  0
 18 56  1  0
M  CHG  1   8   1
M  END
