185_CCCCCCC[N+](CCC)(CCC)CCCC
     RDKit          3D

 56 55  0  0  0  0  0  0  0  0999 V2000
    6.4686   -0.6553    0.4135 C   0  0  0  0  0  0  0  0  0  0  0  0
    6.0975    0.3938   -0.6231 C   0  0  0  0  0  0  0  0  0  0  0  0
    4.7527    1.0718   -0.3523 C   0  0  0  0  0  0  0  0  0  0  0  0
    3.5602    0.1194   -0.4645 C   0  0  0  0  0  0  0  0  0  0  0  0
    2.2361    0.8671   -0.2900 C   0  0  0  0  0  0  0  0  0  0  0  0
    1.0393   -0.0855   -0.3970 C   0  0  0  0  0  0  0  0  0  0  0  0
   -0.2703    0.6833   -0.2406 C   0  0  0  0  0  0  0  0  0  0  0  0
   -1.5456   -0.1973   -0.1600 N   0  0  0  0  0  0  0  0  0  0  0  0
   -1.4812   -1.2511    0.9817 C   0  0  0  0  0  0  0  0  0  0  0  0
   -1.1955   -0.6709    2.3697 C   0  0  0  0  0  0  0  0  0  0  0  0
   -1.0838   -1.7864    3.4017 C   0  0  0  0  0  0  0  0  0  0  0  0
   -1.8488   -0.8857   -1.5290 C   0  0  0  0  0  0  0  0  0  0  0  0
   -1.1251   -2.2062   -1.8175 C   0  0  0  0  0  0  0  0  0  0  0  0
   -1.9767   -3.4363   -1.5246 C   0  0  0  0  0  0  0  0  0  0  0  0
   -2.7618    0.7534    0.1666 C   0  0  0  0  0  0  0  0  0  0  0  0
   -3.0732    1.7813   -0.9288 C   0  0  0  0  0  0  0  0  0  0  0  0
   -4.3277    2.6058   -0.6143 C   0  0  0  0  0  0  0  0  0  0  0  0
   -4.1797    3.4984    0.6083 C   0  0  0  0  0  0  0  0  0  0  0  0
    5.7860   -1.5095    0.3823 H   0  0  0  0  0  0  0  0  0  0  0  0
    6.4510   -0.2337    1.4234 H   0  0  0  0  0  0  0  0  0  0  0  0
    7.4784   -1.0320    0.2213 H   0  0  0  0  0  0  0  0  0  0  0  0
    6.8782    1.1639   -0.6335 H   0  0  0  0  0  0  0  0  0  0  0  0
    6.0911   -0.0638   -1.6192 H   0  0  0  0  0  0  0  0  0  0  0  0
    4.7669    1.5318    0.6433 H   0  0  0  0  0  0  0  0  0  0  0  0
    4.6292    1.8876   -1.0753 H   0  0  0  0  0  0  0  0  0  0  0  0
    3.5758   -0.3758   -1.4428 H   0  0  0  0  0  0  0  0  0  0  0  0
    3.6323   -0.6640    0.2983 H   0  0  0  0  0  0  0  0  0  0  0  0
    2.2228    1.3649    0.6874 H   0  0  0  0  0  0  0  0  0  0  0  0
    2.1519    1.6497   -1.0539 H   0  0  0  0  0  0  0  0  0  0  0  0
    1.1426   -0.8620    0.3662 H   0  0  0  0  0  0  0  0  0  0  0  0
    1.0756   -0.5660   -1.3793 H   0  0  0  0  0  0  0  0  0  0  0  0
   -0.2525    1.3026    0.6628 H   0  0  0  0  0  0  0  0  0  0  0  0
   -0.3938    1.3519   -1.0988 H   0  0  0  0  0  0  0  0  0  0  0  0
   -2.4480   -1.7674    0.9815 H   0  0  0  0  0  0  0  0  0  0  0  0
   -0.7037   -1.9746    0.7282 H   0  0  0  0  0  0  0  0  0  0  0  0
   -1.9953    0.0026    2.6905 H   0  0  0  0  0  0  0  0  0  0  0  0
   -0.2597   -0.1044    2.3780 H   0  0  0  0  0  0  0  0  0  0  0  0
   -0.8861   -1.3667    4.3931 H   0  0  0  0  0  0  0  0  0  0  0  0
   -0.2656   -2.4701    3.1534 H   0  0  0  0  0  0  0  0  0  0  0  0
   -2.0118   -2.3646    3.4562 H   0  0  0  0  0  0  0  0  0  0  0  0
   -2.9331   -1.0414   -1.5720 H   0  0  0  0  0  0  0  0  0  0  0  0
   -1.5773   -0.1553   -2.2993 H   0  0  0  0  0  0  0  0  0  0  0  0
   -0.1660   -2.3004   -1.3071 H   0  0  0  0  0  0  0  0  0  0  0  0
   -0.8969   -2.2296   -2.8911 H   0  0  0  0  0  0  0  0  0  0  0  0
   -2.9143   -3.4064   -2.0892 H   0  0  0  0  0  0  0  0  0  0  0  0
   -2.2189   -3.5267   -0.4635 H   0  0  0  0  0  0  0  0  0  0  0  0
   -1.4380   -4.3423   -1.8210 H   0  0  0  0  0  0  0  0  0  0  0  0
   -2.5112    1.2730    1.0946 H   0  0  0  0  0  0  0  0  0  0  0  0
   -3.6266    0.1031    0.3426 H   0  0  0  0  0  0  0  0  0  0  0  0
   -2.2324    2.4683   -1.0682 H   0  0  0  0  0  0  0  0  0  0  0  0
   -3.2472    1.2857   -1.8888 H   0  0  0  0  0  0  0  0  0  0  0  0
   -5.1876    1.9395   -0.4783 H   0  0  0  0  0  0  0  0  0  0  0  0
   -4.5520    3.2389   -1.4813 H   0  0  0  0  0  0  0  0  0  0  0  0
   -3.3051    4.1500    0.5160 H   0  0  0  0  0  0  0  0  0  0  0  0
   -4.0790    2.9104    1.5252 H   0  0  0  0  0  0  0  0  0  0  0  0
   -5.0648    4.1331    0.7187 H   0  0  0  0  0  0  0  0  0  0  0  0
  1  2  1  0
  2  3  1  0
  3  4  1  0
  4  5  1  0
  5  6  1  0
  6  7  1  0
  7  8  1  0
  8  9  1  0
  9 10  1  0
 10 11  1  0
  8 12  1  0
 12 13  1  0
 13 14  1  0
  8 15  1  0
 15 16  1  0
 16 17  1  0
 17 18  1  0
  1 19  1  0
  1 20  1  0
  1 21  1  0
  2 22  1  0
  2 23  1  0
  3 24  1  0
  3 25  1  0
  4 26  1  0
  4 27  1  0
  5 28  1  0
  5 29  1  0
  6 30  1  0
  6 31  1  0
  7 32  1  0
  7 33  1  0
  9 34  1  0
  9 35  1  0
 10 36  1  0
 10 37  1  0
 11 38  1  0
 11 39  1  0
 11 40  1  0
 12 41  1  0
 12 42  1  0
 13 43  1  0
 13 44  1  0
 14 45  1  0
 14 46  1  0
 14 47  1  0
 15 48  1  0
 15 49  1  0
 16 50  1  0
 16 51  1  0
 17 52  1  0
 17 53  1  0
 18 54  1  0
 18 55  1  0
 18 56  1  0
M  CHG  1   8   1
M  END
