192_CCCCC[N+](CC)(CCCCC)CCCCC
     RDKit          3D

 56 55  0  0  0  0  0  0  0  0999 V2000
   -6.0600   -1.1893    0.0989 C   0  0  0  0  0  0  0  0  0  0  0  0
   -4.5821   -1.5285   -0.0717 C   0  0  0  0  0  0  0  0  0  0  0  0
   -3.8270   -0.3801   -0.7572 C   0  0  0  0  0  0  0  0  0  0  0  0
   -2.3674   -0.7388   -1.0819 C   0  0  0  0  0  0  0  0  0  0  0  0
   -1.5013   -0.9071    0.1944 C   0  0  0  0  0  0  0  0  0  0  0  0
   -0.0103   -0.9437   -0.0201 N   0  0  0  0  0  0  0  0  0  0  0  0
    0.3542   -2.0333   -0.9954 C   0  0  0  0  0  0  0  0  0  0  0  0
    0.0407   -3.4738   -0.5526 C   0  0  0  0  0  0  0  0  0  0  0  0
    0.4878    0.3532   -0.6026 C   0  0  0  0  0  0  0  0  0  0  0  0
    0.0019    1.6471    0.1030 C   0  0  0  0  0  0  0  0  0  0  0  0
    0.8022    2.8877   -0.3274 C   0  0  0  0  0  0  0  0  0  0  0  0
    0.5494    3.2775   -1.7911 C   0  0  0  0  0  0  0  0  0  0  0  0
    1.2450    4.5907   -2.1375 C   0  0  0  0  0  0  0  0  0  0  0  0
    0.6125   -1.1905    1.3303 C   0  0  0  0  0  0  0  0  0  0  0  0
    2.1674   -1.2483    1.3858 C   0  0  0  0  0  0  0  0  0  0  0  0
    2.7690   -0.0171    2.0865 C   0  0  0  0  0  0  0  0  0  0  0  0
    4.3037   -0.0605    2.1442 C   0  0  0  0  0  0  0  0  0  0  0  0
    4.9515    0.2633    0.7975 C   0  0  0  0  0  0  0  0  0  0  0  0
   -6.1766   -0.2742    0.7178 H   0  0  0  0  0  0  0  0  0  0  0  0
   -6.5359   -1.0258   -0.8915 H   0  0  0  0  0  0  0  0  0  0  0  0
   -6.5783   -2.0300    0.6065 H   0  0  0  0  0  0  0  0  0  0  0  0
   -4.1502   -1.7221    0.9329 H   0  0  0  0  0  0  0  0  0  0  0  0
   -4.4944   -2.4548   -0.6802 H   0  0  0  0  0  0  0  0  0  0  0  0
   -3.8578    0.5288   -0.1169 H   0  0  0  0  0  0  0  0  0  0  0  0
   -4.3396   -0.1335   -1.7132 H   0  0  0  0  0  0  0  0  0  0  0  0
   -1.9718    0.0746   -1.7204 H   0  0  0  0  0  0  0  0  0  0  0  0
   -2.3606   -1.6754   -1.6787 H   0  0  0  0  0  0  0  0  0  0  0  0
   -1.8358   -1.8330    0.7077 H   0  0  0  0  0  0  0  0  0  0  0  0
   -1.7678   -0.1009    0.9122 H   0  0  0  0  0  0  0  0  0  0  0  0
    1.4311   -1.9963   -1.2584 H   0  0  0  0  0  0  0  0  0  0  0  0
   -0.1476   -1.8682   -1.9726 H   0  0  0  0  0  0  0  0  0  0  0  0
   -1.0323   -3.6144   -0.3180 H   0  0  0  0  0  0  0  0  0  0  0  0
    0.2846   -4.1637   -1.3879 H   0  0  0  0  0  0  0  0  0  0  0  0
    0.6679   -3.7789    0.3092 H   0  0  0  0  0  0  0  0  0  0  0  0
    1.5974    0.3634   -0.6314 H   0  0  0  0  0  0  0  0  0  0  0  0
    0.1976    0.4296   -1.6722 H   0  0  0  0  0  0  0  0  0  0  0  0
   -1.0719    1.8258   -0.1193 H   0  0  0  0  0  0  0  0  0  0  0  0
    0.1055    1.5579    1.2014 H   0  0  0  0  0  0  0  0  0  0  0  0
    0.4995    3.7345    0.3273 H   0  0  0  0  0  0  0  0  0  0  0  0
    1.8884    2.7118   -0.1660 H   0  0  0  0  0  0  0  0  0  0  0  0
    0.9380    2.4876   -2.4681 H   0  0  0  0  0  0  0  0  0  0  0  0
   -0.5422    3.3917   -1.9687 H   0  0  0  0  0  0  0  0  0  0  0  0
    1.0555    4.8423   -3.2023 H   0  0  0  0  0  0  0  0  0  0  0  0
    0.8533    5.4146   -1.5036 H   0  0  0  0  0  0  0  0  0  0  0  0
    2.3413    4.4984   -1.9836 H   0  0  0  0  0  0  0  0  0  0  0  0
    0.2490   -0.4457    2.0708 H   0  0  0  0  0  0  0  0  0  0  0  0
    0.2287   -2.1425    1.7575 H   0  0  0  0  0  0  0  0  0  0  0  0
    2.4621   -2.1491    1.9682 H   0  0  0  0  0  0  0  0  0  0  0  0
    2.6252   -1.3698    0.3907 H   0  0  0  0  0  0  0  0  0  0  0  0
    2.4443    0.9165    1.5829 H   0  0  0  0  0  0  0  0  0  0  0  0
    2.3855    0.0179    3.1298 H   0  0  0  0  0  0  0  0  0  0  0  0
    4.6490   -1.0567    2.4965 H   0  0  0  0  0  0  0  0  0  0  0  0
    4.6485    0.6948    2.8834 H   0  0  0  0  0  0  0  0  0  0  0  0
    6.0528    0.3268    0.9245 H   0  0  0  0  0  0  0  0  0  0  0  0
    4.5844    1.2391    0.4138 H   0  0  0  0  0  0  0  0  0  0  0  0
    4.7360   -0.5297    0.0526 H   0  0  0  0  0  0  0  0  0  0  0  0
  1  2  1  0
  2  3  1  0
  3  4  1  0
  4  5  1  0
  5  6  1  0
  6  7  1  0
  7  8  1  0
  6  9  1  0
  9 10  1  0
 10 11  1  0
 11 12  1  0
 12 13  1  0
  6 14  1  0
 14 15  1  0
 15 16  1  0
 16 17  1  0
 17 18  1  0
  1 19  1  0
  1 20  1  0
  1 21  1  0
  2 22  1  0
  2 23  1  0
  3 24  1  0
  3 25  1  0
  4 26  1  0
  4 27  1  0
  5 28  1  0
  5 29  1  0
  7 30  1  0
  7 31  1  0
  8 32  1  0
  8 33  1  0
  8 34  1  0
  9 35  1  0
  9 36  1  0
 10 37  1  0
 10 38  1  0
 11 39  1  0
 11 40  1  0
 12 41  1  0
 12 42  1  0
 13 43  1  0
 13 44  1  0
 13 45  1  0
 14 46  1  0
 14 47  1  0
 15 48  1  0
 15 49  1  0
 16 50  1  0
 16 51  1  0
 17 52  1  0
 17 53  1  0
 18 54  1  0
 18 55  1  0
 18 56  1  0
M  CHG  1   6   1
M  END
