195_CCCCCCCCCCCCCCC[N+](C)(C)C
     RDKit          3D

 59 58  0  0  0  0  0  0  0  0999 V2000
   -8.4689    1.0853    0.0561 C   0  0  0  0  0  0  0  0  0  0  0  0
   -7.2205    1.9045    0.3822 C   0  0  0  0  0  0  0  0  0  0  0  0
   -6.2201    1.1388    1.2618 C   0  0  0  0  0  0  0  0  0  0  0  0
   -5.5310   -0.0097    0.5099 C   0  0  0  0  0  0  0  0  0  0  0  0
   -4.4380   -0.6537    1.3757 C   0  0  0  0  0  0  0  0  0  0  0  0
   -3.8462   -1.9284    0.7470 C   0  0  0  0  0  0  0  0  0  0  0  0
   -3.1604   -1.7226   -0.6159 C   0  0  0  0  0  0  0  0  0  0  0  0
   -1.9692   -0.7556   -0.5476 C   0  0  0  0  0  0  0  0  0  0  0  0
   -1.1964   -0.7418   -1.8748 C   0  0  0  0  0  0  0  0  0  0  0  0
   -0.1235    0.3610   -1.9353 C   0  0  0  0  0  0  0  0  0  0  0  0
    0.9710    0.2686   -0.8562 C   0  0  0  0  0  0  0  0  0  0  0  0
    1.8001   -1.0236   -0.9533 C   0  0  0  0  0  0  0  0  0  0  0  0
    2.9443   -1.0697    0.0731 C   0  0  0  0  0  0  0  0  0  0  0  0
    4.1260   -0.1637   -0.3102 C   0  0  0  0  0  0  0  0  0  0  0  0
    5.2944   -0.3410    0.6882 C   0  0  0  0  0  0  0  0  0  0  0  0
    6.4966    0.5072    0.4194 N   0  0  0  0  0  0  0  0  0  0  0  0
    6.1681    1.9511    0.5005 C   0  0  0  0  0  0  0  0  0  0  0  0
    7.5111    0.2026    1.4582 C   0  0  0  0  0  0  0  0  0  0  0  0
    7.0850    0.2042   -0.9077 C   0  0  0  0  0  0  0  0  0  0  0  0
   -8.9414    0.7085    0.9881 H   0  0  0  0  0  0  0  0  0  0  0  0
   -9.2019    1.7270   -0.4767 H   0  0  0  0  0  0  0  0  0  0  0  0
   -8.2166    0.2296   -0.6036 H   0  0  0  0  0  0  0  0  0  0  0  0
   -6.7306    2.2290   -0.5616 H   0  0  0  0  0  0  0  0  0  0  0  0
   -7.5376    2.8198    0.9274 H   0  0  0  0  0  0  0  0  0  0  0  0
   -6.7379    0.7449    2.1639 H   0  0  0  0  0  0  0  0  0  0  0  0
   -5.4451    1.8587    1.6054 H   0  0  0  0  0  0  0  0  0  0  0  0
   -5.0774    0.3920   -0.4212 H   0  0  0  0  0  0  0  0  0  0  0  0
   -6.2816   -0.7828    0.2401 H   0  0  0  0  0  0  0  0  0  0  0  0
   -3.6325    0.0825    1.5825 H   0  0  0  0  0  0  0  0  0  0  0  0
   -4.8781   -0.9370    2.3571 H   0  0  0  0  0  0  0  0  0  0  0  0
   -4.6578   -2.6784    0.6244 H   0  0  0  0  0  0  0  0  0  0  0  0
   -3.1096   -2.3632    1.4573 H   0  0  0  0  0  0  0  0  0  0  0  0
   -2.7972   -2.7153   -0.9620 H   0  0  0  0  0  0  0  0  0  0  0  0
   -3.8972   -1.3672   -1.3672 H   0  0  0  0  0  0  0  0  0  0  0  0
   -1.2924   -1.0765    0.2728 H   0  0  0  0  0  0  0  0  0  0  0  0
   -2.3359    0.2711   -0.3341 H   0  0  0  0  0  0  0  0  0  0  0  0
   -1.9131   -0.5571   -2.7051 H   0  0  0  0  0  0  0  0  0  0  0  0
   -0.7381   -1.7362   -2.0595 H   0  0  0  0  0  0  0  0  0  0  0  0
    0.3570    0.3320   -2.9375 H   0  0  0  0  0  0  0  0  0  0  0  0
   -0.6235    1.3502   -1.8458 H   0  0  0  0  0  0  0  0  0  0  0  0
    1.6375    1.1450   -0.9941 H   0  0  0  0  0  0  0  0  0  0  0  0
    0.5226    0.3594    0.1556 H   0  0  0  0  0  0  0  0  0  0  0  0
    1.1387   -1.8918   -0.7488 H   0  0  0  0  0  0  0  0  0  0  0  0
    2.2071   -1.1418   -1.9814 H   0  0  0  0  0  0  0  0  0  0  0  0
    3.3061   -2.1198    0.1335 H   0  0  0  0  0  0  0  0  0  0  0  0
    2.5602   -0.7896    1.0787 H   0  0  0  0  0  0  0  0  0  0  0  0
    4.4544   -0.4338   -1.3350 H   0  0  0  0  0  0  0  0  0  0  0  0
    3.7833    0.8888   -0.3035 H   0  0  0  0  0  0  0  0  0  0  0  0
    5.5863   -1.4168    0.6830 H   0  0  0  0  0  0  0  0  0  0  0  0
    4.9046   -0.1263    1.7103 H   0  0  0  0  0  0  0  0  0  0  0  0
    5.6344    2.1872    1.4481 H   0  0  0  0  0  0  0  0  0  0  0  0
    7.0901    2.5740    0.4613 H   0  0  0  0  0  0  0  0  0  0  0  0
    5.5328    2.2763   -0.3509 H   0  0  0  0  0  0  0  0  0  0  0  0
    7.8033   -0.8715    1.4305 H   0  0  0  0  0  0  0  0  0  0  0  0
    7.1209    0.4258    2.4769 H   0  0  0  0  0  0  0  0  0  0  0  0
    8.4358    0.8058    1.3129 H   0  0  0  0  0  0  0  0  0  0  0  0
    7.2541   -0.8890   -1.0297 H   0  0  0  0  0  0  0  0  0  0  0  0
    6.4310    0.5528   -1.7354 H   0  0  0  0  0  0  0  0  0  0  0  0
    8.0629    0.7200   -1.0388 H   0  0  0  0  0  0  0  0  0  0  0  0
  1  2  1  0
  2  3  1  0
  3  4  1  0
  4  5  1  0
  5  6  1  0
  6  7  1  0
  7  8  1  0
  8  9  1  0
  9 10  1  0
 10 11  1  0
 11 12  1  0
 12 13  1  0
 13 14  1  0
 14 15  1  0
 15 16  1  0
 16 17  1  0
 16 18  1  0
 16 19  1  0
  1 20  1  0
  1 21  1  0
  1 22  1  0
  2 23  1  0
  2 24  1  0
  3 25  1  0
  3 26  1  0
  4 27  1  0
  4 28  1  0
  5 29  1  0
  5 30  1  0
  6 31  1  0
  6 32  1  0
  7 33  1  0
  7 34  1  0
  8 35  1  0
  8 36  1  0
  9 37  1  0
  9 38  1  0
 10 39  1  0
 10 40  1  0
 11 41  1  0
 11 42  1  0
 12 43  1  0
 12 44  1  0
 13 45  1  0
 13 46  1  0
 14 47  1  0
 14 48  1  0
 15 49  1  0
 15 50  1  0
 17 51  1  0
 17 52  1  0
 17 53  1  0
 18 54  1  0
 18 55  1  0
 18 56  1  0
 19 57  1  0
 19 58  1  0
 19 59  1  0
M  CHG  1  16   1
M  END
