196_CCCCCCCCCCCCCC[N+](C)(C)CC
     RDKit          3D

 59 58  0  0  0  0  0  0  0  0999 V2000
    6.6988   -2.7072   -0.7492 C   0  0  0  0  0  0  0  0  0  0  0  0
    6.1593   -1.3218   -1.0927 C   0  0  0  0  0  0  0  0  0  0  0  0
    7.0784   -0.2181   -0.5484 C   0  0  0  0  0  0  0  0  0  0  0  0
    6.5537    1.1962   -0.8757 C   0  0  0  0  0  0  0  0  0  0  0  0
    5.9064    1.9123    0.3255 C   0  0  0  0  0  0  0  0  0  0  0  0
    4.6289    1.2466    0.8638 C   0  0  0  0  0  0  0  0  0  0  0  0
    3.4589    1.3136   -0.1292 C   0  0  0  0  0  0  0  0  0  0  0  0
    2.1865    0.7144    0.4819 C   0  0  0  0  0  0  0  0  0  0  0  0
    1.0156    0.7816   -0.5104 C   0  0  0  0  0  0  0  0  0  0  0  0
   -0.2449    0.0710    0.0087 C   0  0  0  0  0  0  0  0  0  0  0  0
   -0.9565    0.8660    1.1175 C   0  0  0  0  0  0  0  0  0  0  0  0
   -2.2113    0.1509    1.6457 C   0  0  0  0  0  0  0  0  0  0  0  0
   -3.3891    0.2052    0.6586 C   0  0  0  0  0  0  0  0  0  0  0  0
   -4.6576   -0.4217    1.2872 C   0  0  0  0  0  0  0  0  0  0  0  0
   -5.8933   -0.3625    0.4395 N   0  0  0  0  0  0  0  0  0  0  0  0
   -6.9815   -1.0098    1.2191 C   0  0  0  0  0  0  0  0  0  0  0  0
   -6.2722    1.0524    0.1867 C   0  0  0  0  0  0  0  0  0  0  0  0
   -5.6666   -1.0938   -0.8487 C   0  0  0  0  0  0  0  0  0  0  0  0
   -6.9227   -1.3104   -1.7115 C   0  0  0  0  0  0  0  0  0  0  0  0
    6.0194   -3.4832   -1.1605 H   0  0  0  0  0  0  0  0  0  0  0  0
    6.7581   -2.8352    0.3527 H   0  0  0  0  0  0  0  0  0  0  0  0
    7.7084   -2.8490   -1.1904 H   0  0  0  0  0  0  0  0  0  0  0  0
    5.1400   -1.2242   -0.6668 H   0  0  0  0  0  0  0  0  0  0  0  0
    6.0837   -1.2316   -2.1982 H   0  0  0  0  0  0  0  0  0  0  0  0
    7.2169   -0.3434    0.5481 H   0  0  0  0  0  0  0  0  0  0  0  0
    8.0799   -0.3400   -1.0175 H   0  0  0  0  0  0  0  0  0  0  0  0
    5.8622    1.1843   -1.7447 H   0  0  0  0  0  0  0  0  0  0  0  0
    7.4206    1.8172   -1.1917 H   0  0  0  0  0  0  0  0  0  0  0  0
    5.6719    2.9590    0.0323 H   0  0  0  0  0  0  0  0  0  0  0  0
    6.6501    1.9704    1.1501 H   0  0  0  0  0  0  0  0  0  0  0  0
    4.8347    0.1946    1.1516 H   0  0  0  0  0  0  0  0  0  0  0  0
    4.3353    1.7833    1.7925 H   0  0  0  0  0  0  0  0  0  0  0  0
    3.7123    0.7496   -1.0511 H   0  0  0  0  0  0  0  0  0  0  0  0
    3.2699    2.3744   -0.4050 H   0  0  0  0  0  0  0  0  0  0  0  0
    2.3782   -0.3463    0.7568 H   0  0  0  0  0  0  0  0  0  0  0  0
    1.9312    1.2795    1.4032 H   0  0  0  0  0  0  0  0  0  0  0  0
    1.3219    0.2847   -1.4573 H   0  0  0  0  0  0  0  0  0  0  0  0
    0.7803    1.8422   -0.7489 H   0  0  0  0  0  0  0  0  0  0  0  0
    0.0193   -0.9446    0.3766 H   0  0  0  0  0  0  0  0  0  0  0  0
   -0.9347   -0.0519   -0.8522 H   0  0  0  0  0  0  0  0  0  0  0  0
   -0.2635    0.9964    1.9747 H   0  0  0  0  0  0  0  0  0  0  0  0
   -1.2271    1.8788    0.7467 H   0  0  0  0  0  0  0  0  0  0  0  0
   -1.9680   -0.9067    1.8893 H   0  0  0  0  0  0  0  0  0  0  0  0
   -2.5146    0.6513    2.5916 H   0  0  0  0  0  0  0  0  0  0  0  0
   -3.5738    1.2657    0.3913 H   0  0  0  0  0  0  0  0  0  0  0  0
   -3.1081   -0.3570   -0.2530 H   0  0  0  0  0  0  0  0  0  0  0  0
   -4.8415    0.0918    2.2598 H   0  0  0  0  0  0  0  0  0  0  0  0
   -4.4221   -1.4824    1.5377 H   0  0  0  0  0  0  0  0  0  0  0  0
   -6.7858   -2.0977    1.3505 H   0  0  0  0  0  0  0  0  0  0  0  0
   -7.9718   -0.8925    0.7277 H   0  0  0  0  0  0  0  0  0  0  0  0
   -7.0804   -0.5529    2.2297 H   0  0  0  0  0  0  0  0  0  0  0  0
   -6.2297    1.6531    1.1226 H   0  0  0  0  0  0  0  0  0  0  0  0
   -7.3094    1.1373   -0.2036 H   0  0  0  0  0  0  0  0  0  0  0  0
   -5.6054    1.5276   -0.5644 H   0  0  0  0  0  0  0  0  0  0  0  0
   -4.9438   -0.5401   -1.4864 H   0  0  0  0  0  0  0  0  0  0  0  0
   -5.2209   -2.0950   -0.6497 H   0  0  0  0  0  0  0  0  0  0  0  0
   -6.6200   -1.7487   -2.6860 H   0  0  0  0  0  0  0  0  0  0  0  0
   -7.6201   -2.0282   -1.2326 H   0  0  0  0  0  0  0  0  0  0  0  0
   -7.4446   -0.3554   -1.9206 H   0  0  0  0  0  0  0  0  0  0  0  0
  1  2  1  0
  2  3  1  0
  3  4  1  0
  4  5  1  0
  5  6  1  0
  6  7  1  0
  7  8  1  0
  8  9  1  0
  9 10  1  0
 10 11  1  0
 11 12  1  0
 12 13  1  0
 13 14  1  0
 14 15  1  0
 15 16  1  0
 15 17  1  0
 15 18  1  0
 18 19  1  0
  1 20  1  0
  1 21  1  0
  1 22  1  0
  2 23  1  0
  2 24  1  0
  3 25  1  0
  3 26  1  0
  4 27  1  0
  4 28  1  0
  5 29  1  0
  5 30  1  0
  6 31  1  0
  6 32  1  0
  7 33  1  0
  7 34  1  0
  8 35  1  0
  8 36  1  0
  9 37  1  0
  9 38  1  0
 10 39  1  0
 10 40  1  0
 11 41  1  0
 11 42  1  0
 12 43  1  0
 12 44  1  0
 13 45  1  0
 13 46  1  0
 14 47  1  0
 14 48  1  0
 16 49  1  0
 16 50  1  0
 16 51  1  0
 17 52  1  0
 17 53  1  0
 17 54  1  0
 18 55  1  0
 18 56  1  0
 19 57  1  0
 19 58  1  0
 19 59  1  0
M  CHG  1  15   1
M  END
