199_CCCCCCCCCCCC[N+](C)(C)CCCC
     RDKit          3D

 59 58  0  0  0  0  0  0  0  0999 V2000
    8.8581    0.4497    0.1702 C   0  0  0  0  0  0  0  0  0  0  0  0
    7.6305   -0.4573    0.2566 C   0  0  0  0  0  0  0  0  0  0  0  0
    6.4279    0.0905   -0.5281 C   0  0  0  0  0  0  0  0  0  0  0  0
    5.7565    1.2804    0.1787 C   0  0  0  0  0  0  0  0  0  0  0  0
    4.6122    1.8994   -0.6450 C   0  0  0  0  0  0  0  0  0  0  0  0
    3.4297    0.9566   -0.9339 C   0  0  0  0  0  0  0  0  0  0  0  0
    2.7365    0.4548    0.3415 C   0  0  0  0  0  0  0  0  0  0  0  0
    1.4579   -0.3215    0.0034 C   0  0  0  0  0  0  0  0  0  0  0  0
    0.7687   -0.8284    1.2793 C   0  0  0  0  0  0  0  0  0  0  0  0
   -0.4394   -1.7316    0.9824 C   0  0  0  0  0  0  0  0  0  0  0  0
   -1.6330   -0.9570    0.4007 C   0  0  0  0  0  0  0  0  0  0  0  0
   -2.8699   -1.8786    0.2682 C   0  0  0  0  0  0  0  0  0  0  0  0
   -4.0659   -1.2606   -0.3931 N   0  0  0  0  0  0  0  0  0  0  0  0
   -5.1347   -2.2943   -0.4001 C   0  0  0  0  0  0  0  0  0  0  0  0
   -3.7444   -0.9059   -1.8008 C   0  0  0  0  0  0  0  0  0  0  0  0
   -4.5080   -0.0522    0.3761 C   0  0  0  0  0  0  0  0  0  0  0  0
   -5.8686    0.5449   -0.0568 C   0  0  0  0  0  0  0  0  0  0  0  0
   -6.1457    1.8612    0.6812 C   0  0  0  0  0  0  0  0  0  0  0  0
   -7.4968    2.4466    0.2800 C   0  0  0  0  0  0  0  0  0  0  0  0
    9.7222   -0.0540    0.6526 H   0  0  0  0  0  0  0  0  0  0  0  0
    9.1171    0.6541   -0.8904 H   0  0  0  0  0  0  0  0  0  0  0  0
    8.6805    1.4083    0.6992 H   0  0  0  0  0  0  0  0  0  0  0  0
    7.9035   -1.4482   -0.1671 H   0  0  0  0  0  0  0  0  0  0  0  0
    7.3549   -0.6132    1.3223 H   0  0  0  0  0  0  0  0  0  0  0  0
    6.7461    0.3830   -1.5528 H   0  0  0  0  0  0  0  0  0  0  0  0
    5.6918   -0.7353   -0.6234 H   0  0  0  0  0  0  0  0  0  0  0  0
    6.5082    2.0802    0.3440 H   0  0  0  0  0  0  0  0  0  0  0  0
    5.3877    0.9713    1.1793 H   0  0  0  0  0  0  0  0  0  0  0  0
    4.2320    2.7932   -0.1038 H   0  0  0  0  0  0  0  0  0  0  0  0
    5.0218    2.2593   -1.6140 H   0  0  0  0  0  0  0  0  0  0  0  0
    3.7637    0.0953   -1.5501 H   0  0  0  0  0  0  0  0  0  0  0  0
    2.6925    1.5232   -1.5441 H   0  0  0  0  0  0  0  0  0  0  0  0
    3.4250   -0.2167    0.8978 H   0  0  0  0  0  0  0  0  0  0  0  0
    2.4796    1.3213    0.9898 H   0  0  0  0  0  0  0  0  0  0  0  0
    0.7681    0.3489   -0.5522 H   0  0  0  0  0  0  0  0  0  0  0  0
    1.7158   -1.1860   -0.6473 H   0  0  0  0  0  0  0  0  0  0  0  0
    0.4502    0.0337    1.9056 H   0  0  0  0  0  0  0  0  0  0  0  0
    1.5003   -1.4213    1.8711 H   0  0  0  0  0  0  0  0  0  0  0  0
   -0.7516   -2.2082    1.9376 H   0  0  0  0  0  0  0  0  0  0  0  0
   -0.1381   -2.5438    0.2847 H   0  0  0  0  0  0  0  0  0  0  0  0
   -1.3472   -0.5604   -0.5928 H   0  0  0  0  0  0  0  0  0  0  0  0
   -1.8605   -0.1099    1.0808 H   0  0  0  0  0  0  0  0  0  0  0  0
   -2.5543   -2.7889   -0.2934 H   0  0  0  0  0  0  0  0  0  0  0  0
   -3.1428   -2.2266    1.2917 H   0  0  0  0  0  0  0  0  0  0  0  0
   -5.4824   -2.5163    0.6338 H   0  0  0  0  0  0  0  0  0  0  0  0
   -4.7732   -3.2449   -0.8536 H   0  0  0  0  0  0  0  0  0  0  0  0
   -6.0145   -1.9800   -1.0024 H   0  0  0  0  0  0  0  0  0  0  0  0
   -3.1174    0.0094   -1.8611 H   0  0  0  0  0  0  0  0  0  0  0  0
   -3.2044   -1.7345   -2.3110 H   0  0  0  0  0  0  0  0  0  0  0  0
   -4.6617   -0.7070   -2.3958 H   0  0  0  0  0  0  0  0  0  0  0  0
   -4.5757   -0.2971    1.4611 H   0  0  0  0  0  0  0  0  0  0  0  0
   -3.7520    0.7573    0.2758 H   0  0  0  0  0  0  0  0  0  0  0  0
   -6.6880   -0.1646    0.1862 H   0  0  0  0  0  0  0  0  0  0  0  0
   -5.8748    0.7446   -1.1481 H   0  0  0  0  0  0  0  0  0  0  0  0
   -6.1427    1.6837    1.7788 H   0  0  0  0  0  0  0  0  0  0  0  0
   -5.3505    2.6007    0.4422 H   0  0  0  0  0  0  0  0  0  0  0  0
   -7.6673    3.3974    0.8277 H   0  0  0  0  0  0  0  0  0  0  0  0
   -8.3149    1.7392    0.5337 H   0  0  0  0  0  0  0  0  0  0  0  0
   -7.5180    2.6564   -0.8107 H   0  0  0  0  0  0  0  0  0  0  0  0
  1  2  1  0
  2  3  1  0
  3  4  1  0
  4  5  1  0
  5  6  1  0
  6  7  1  0
  7  8  1  0
  8  9  1  0
  9 10  1  0
 10 11  1  0
 11 12  1  0
 12 13  1  0
 13 14  1  0
 13 15  1  0
 13 16  1  0
 16 17  1  0
 17 18  1  0
 18 19  1  0
  1 20  1  0
  1 21  1  0
  1 22  1  0
  2 23  1  0
  2 24  1  0
  3 25  1  0
  3 26  1  0
  4 27  1  0
  4 28  1  0
  5 29  1  0
  5 30  1  0
  6 31  1  0
  6 32  1  0
  7 33  1  0
  7 34  1  0
  8 35  1  0
  8 36  1  0
  9 37  1  0
  9 38  1  0
 10 39  1  0
 10 40  1  0
 11 41  1  0
 11 42  1  0
 12 43  1  0
 12 44  1  0
 14 45  1  0
 14 46  1  0
 14 47  1  0
 15 48  1  0
 15 49  1  0
 15 50  1  0
 16 51  1  0
 16 52  1  0
 17 53  1  0
 17 54  1  0
 18 55  1  0
 18 56  1  0
 19 57  1  0
 19 58  1  0
 19 59  1  0
M  CHG  1  13   1
M  END
