210_CCCCCCCCCC[N+](CC)(CCC)CCC
     RDKit          3D

 59 58  0  0  0  0  0  0  0  0999 V2000
    7.3315   -0.1990    1.6317 C   0  0  0  0  0  0  0  0  0  0  0  0
    6.7491   -1.3948    0.8779 C   0  0  0  0  0  0  0  0  0  0  0  0
    5.3514   -1.1127    0.3062 C   0  0  0  0  0  0  0  0  0  0  0  0
    5.3776   -0.0795   -0.8345 C   0  0  0  0  0  0  0  0  0  0  0  0
    4.0512   -0.0186   -1.6082 C   0  0  0  0  0  0  0  0  0  0  0  0
    2.8959    0.5374   -0.7614 C   0  0  0  0  0  0  0  0  0  0  0  0
    1.6380    0.7392   -1.6186 C   0  0  0  0  0  0  0  0  0  0  0  0
    0.4706    1.3498   -0.8256 C   0  0  0  0  0  0  0  0  0  0  0  0
   -0.1800    0.3467    0.1418 C   0  0  0  0  0  0  0  0  0  0  0  0
   -1.4245    0.9425    0.8694 C   0  0  0  0  0  0  0  0  0  0  0  0
   -2.7541    0.3029    0.5527 N   0  0  0  0  0  0  0  0  0  0  0  0
   -3.7864    1.1155    1.2889 C   0  0  0  0  0  0  0  0  0  0  0  0
   -5.2233    0.5675    1.2644 C   0  0  0  0  0  0  0  0  0  0  0  0
   -2.7212   -1.1014    1.1252 C   0  0  0  0  0  0  0  0  0  0  0  0
   -3.5706   -2.1757    0.3991 C   0  0  0  0  0  0  0  0  0  0  0  0
   -3.5794   -3.4885    1.1790 C   0  0  0  0  0  0  0  0  0  0  0  0
   -3.0234    0.3191   -0.9328 C   0  0  0  0  0  0  0  0  0  0  0  0
   -3.0609    1.7164   -1.6226 C   0  0  0  0  0  0  0  0  0  0  0  0
   -4.4747    2.1574   -2.0036 C   0  0  0  0  0  0  0  0  0  0  0  0
    8.2852   -0.4973    2.1161 H   0  0  0  0  0  0  0  0  0  0  0  0
    6.6280    0.1445    2.4193 H   0  0  0  0  0  0  0  0  0  0  0  0
    7.5440    0.6382    0.9341 H   0  0  0  0  0  0  0  0  0  0  0  0
    6.6743   -2.2494    1.5841 H   0  0  0  0  0  0  0  0  0  0  0  0
    7.4421   -1.6946    0.0620 H   0  0  0  0  0  0  0  0  0  0  0  0
    4.6850   -0.7622    1.1233 H   0  0  0  0  0  0  0  0  0  0  0  0
    4.9414   -2.0715   -0.0796 H   0  0  0  0  0  0  0  0  0  0  0  0
    6.1795   -0.3520   -1.5557 H   0  0  0  0  0  0  0  0  0  0  0  0
    5.6131    0.9288   -0.4309 H   0  0  0  0  0  0  0  0  0  0  0  0
    3.7890   -1.0328   -1.9838 H   0  0  0  0  0  0  0  0  0  0  0  0
    4.2017    0.6381   -2.4936 H   0  0  0  0  0  0  0  0  0  0  0  0
    2.6732   -0.1753    0.0576 H   0  0  0  0  0  0  0  0  0  0  0  0
    3.1964    1.5107   -0.3165 H   0  0  0  0  0  0  0  0  0  0  0  0
    1.3249   -0.2285   -2.0687 H   0  0  0  0  0  0  0  0  0  0  0  0
    1.8839    1.4322   -2.4532 H   0  0  0  0  0  0  0  0  0  0  0  0
   -0.2892    1.6894   -1.5573 H   0  0  0  0  0  0  0  0  0  0  0  0
    0.8203    2.2452   -0.2665 H   0  0  0  0  0  0  0  0  0  0  0  0
   -0.4081   -0.5911   -0.4012 H   0  0  0  0  0  0  0  0  0  0  0  0
    0.5678    0.0737    0.9164 H   0  0  0  0  0  0  0  0  0  0  0  0
   -1.4518    2.0439    0.7249 H   0  0  0  0  0  0  0  0  0  0  0  0
   -1.2288    0.8475    1.9645 H   0  0  0  0  0  0  0  0  0  0  0  0
   -3.5075    1.2105    2.3641 H   0  0  0  0  0  0  0  0  0  0  0  0
   -3.8149    2.1593    0.9106 H   0  0  0  0  0  0  0  0  0  0  0  0
   -5.9018    1.3197    1.7212 H   0  0  0  0  0  0  0  0  0  0  0  0
   -5.5883    0.3786    0.2367 H   0  0  0  0  0  0  0  0  0  0  0  0
   -5.3071   -0.3545    1.8753 H   0  0  0  0  0  0  0  0  0  0  0  0
   -1.6898   -1.5131    1.1508 H   0  0  0  0  0  0  0  0  0  0  0  0
   -3.0144   -1.0860    2.2003 H   0  0  0  0  0  0  0  0  0  0  0  0
   -3.1393   -2.3820   -0.6041 H   0  0  0  0  0  0  0  0  0  0  0  0
   -4.6211   -1.8531    0.2703 H   0  0  0  0  0  0  0  0  0  0  0  0
   -4.1760   -4.2453    0.6268 H   0  0  0  0  0  0  0  0  0  0  0  0
   -2.5438   -3.8729    1.3010 H   0  0  0  0  0  0  0  0  0  0  0  0
   -4.0382   -3.3388    2.1800 H   0  0  0  0  0  0  0  0  0  0  0  0
   -3.9752   -0.1949   -1.1701 H   0  0  0  0  0  0  0  0  0  0  0  0
   -2.2690   -0.2947   -1.4654 H   0  0  0  0  0  0  0  0  0  0  0  0
   -2.4776    1.6557   -2.5672 H   0  0  0  0  0  0  0  0  0  0  0  0
   -2.5952    2.5193   -1.0244 H   0  0  0  0  0  0  0  0  0  0  0  0
   -4.4247    3.1178   -2.5585 H   0  0  0  0  0  0  0  0  0  0  0  0
   -5.0994    2.3123   -1.1016 H   0  0  0  0  0  0  0  0  0  0  0  0
   -4.9553    1.4002   -2.6582 H   0  0  0  0  0  0  0  0  0  0  0  0
  1  2  1  0
  2  3  1  0
  3  4  1  0
  4  5  1  0
  5  6  1  0
  6  7  1  0
  7  8  1  0
  8  9  1  0
  9 10  1  0
 10 11  1  0
 11 12  1  0
 12 13  1  0
 11 14  1  0
 14 15  1  0
 15 16  1  0
 11 17  1  0
 17 18  1  0
 18 19  1  0
  1 20  1  0
  1 21  1  0
  1 22  1  0
  2 23  1  0
  2 24  1  0
  3 25  1  0
  3 26  1  0
  4 27  1  0
  4 28  1  0
  5 29  1  0
  5 30  1  0
  6 31  1  0
  6 32  1  0
  7 33  1  0
  7 34  1  0
  8 35  1  0
  8 36  1  0
  9 37  1  0
  9 38  1  0
 10 39  1  0
 10 40  1  0
 12 41  1  0
 12 42  1  0
 13 43  1  0
 13 44  1  0
 13 45  1  0
 14 46  1  0
 14 47  1  0
 15 48  1  0
 15 49  1  0
 16 50  1  0
 16 51  1  0
 16 52  1  0
 17 53  1  0
 17 54  1  0
 18 55  1  0
 18 56  1  0
 19 57  1  0
 19 58  1  0
 19 59  1  0
M  CHG  1  11   1
M  END
