211_CCCCCCCCC[N+](C)(C)CCCCCCC
     RDKit          3D

 59 58  0  0  0  0  0  0  0  0999 V2000
    7.9504    0.6644    1.2000 C   0  0  0  0  0  0  0  0  0  0  0  0
    7.1625    1.1444   -0.0182 C   0  0  0  0  0  0  0  0  0  0  0  0
    6.3162    0.0326   -0.6633 C   0  0  0  0  0  0  0  0  0  0  0  0
    5.2202   -0.5532    0.2451 C   0  0  0  0  0  0  0  0  0  0  0  0
    4.1690    0.4885    0.6651 C   0  0  0  0  0  0  0  0  0  0  0  0
    2.9569   -0.1639    1.3675 C   0  0  0  0  0  0  0  0  0  0  0  0
    1.6549   -0.0751    0.5524 C   0  0  0  0  0  0  0  0  0  0  0  0
    1.6680   -0.9875   -0.6845 C   0  0  0  0  0  0  0  0  0  0  0  0
    0.5464   -0.7082   -1.7274 C   0  0  0  0  0  0  0  0  0  0  0  0
   -0.8714   -1.0727   -1.3635 N   0  0  0  0  0  0  0  0  0  0  0  0
   -1.6012   -1.3208   -2.6375 C   0  0  0  0  0  0  0  0  0  0  0  0
   -0.9207   -2.3207   -0.5598 C   0  0  0  0  0  0  0  0  0  0  0  0
   -1.5173    0.0796   -0.6505 C   0  0  0  0  0  0  0  0  0  0  0  0
   -2.9327   -0.1887   -0.0807 C   0  0  0  0  0  0  0  0  0  0  0  0
   -3.5041    1.0813    0.5715 C   0  0  0  0  0  0  0  0  0  0  0  0
   -4.8460    0.8362    1.2813 C   0  0  0  0  0  0  0  0  0  0  0  0
   -6.0104    0.6405    0.2948 C   0  0  0  0  0  0  0  0  0  0  0  0
   -7.3535    0.4172    1.0074 C   0  0  0  0  0  0  0  0  0  0  0  0
   -7.9048    1.6913    1.6473 C   0  0  0  0  0  0  0  0  0  0  0  0
    8.5370   -0.2453    0.9508 H   0  0  0  0  0  0  0  0  0  0  0  0
    7.2674    0.4464    2.0470 H   0  0  0  0  0  0  0  0  0  0  0  0
    8.6534    1.4614    1.5220 H   0  0  0  0  0  0  0  0  0  0  0  0
    6.5251    2.0086    0.2635 H   0  0  0  0  0  0  0  0  0  0  0  0
    7.8873    1.5099   -0.7776 H   0  0  0  0  0  0  0  0  0  0  0  0
    5.8418    0.4371   -1.5839 H   0  0  0  0  0  0  0  0  0  0  0  0
    6.9897   -0.7923   -0.9830 H   0  0  0  0  0  0  0  0  0  0  0  0
    5.6743   -1.0148    1.1474 H   0  0  0  0  0  0  0  0  0  0  0  0
    4.7224   -1.3720   -0.3170 H   0  0  0  0  0  0  0  0  0  0  0  0
    3.8455    1.0778   -0.2210 H   0  0  0  0  0  0  0  0  0  0  0  0
    4.6410    1.2013    1.3750 H   0  0  0  0  0  0  0  0  0  0  0  0
    3.1593   -1.2255    1.6327 H   0  0  0  0  0  0  0  0  0  0  0  0
    2.7849    0.3676    2.3295 H   0  0  0  0  0  0  0  0  0  0  0  0
    1.4747    0.9809    0.2542 H   0  0  0  0  0  0  0  0  0  0  0  0
    0.8377   -0.3975    1.2291 H   0  0  0  0  0  0  0  0  0  0  0  0
    2.6242   -0.8209   -1.2231 H   0  0  0  0  0  0  0  0  0  0  0  0
    1.6851   -2.0522   -0.3724 H   0  0  0  0  0  0  0  0  0  0  0  0
    0.8671   -1.2777   -2.6309 H   0  0  0  0  0  0  0  0  0  0  0  0
    0.6093    0.3605   -2.0364 H   0  0  0  0  0  0  0  0  0  0  0  0
   -2.6493   -1.6423   -2.4684 H   0  0  0  0  0  0  0  0  0  0  0  0
   -1.6142   -0.4101   -3.2776 H   0  0  0  0  0  0  0  0  0  0  0  0
   -1.1253   -2.1411   -3.2212 H   0  0  0  0  0  0  0  0  0  0  0  0
   -0.3002   -3.1179   -1.0265 H   0  0  0  0  0  0  0  0  0  0  0  0
   -1.9540   -2.7267   -0.4931 H   0  0  0  0  0  0  0  0  0  0  0  0
   -0.5660   -2.1480    0.4784 H   0  0  0  0  0  0  0  0  0  0  0  0
   -0.8953    0.4123    0.1972 H   0  0  0  0  0  0  0  0  0  0  0  0
   -1.5813    0.9572   -1.3347 H   0  0  0  0  0  0  0  0  0  0  0  0
   -2.8849   -0.9847    0.6920 H   0  0  0  0  0  0  0  0  0  0  0  0
   -3.6180   -0.5081   -0.8874 H   0  0  0  0  0  0  0  0  0  0  0  0
   -3.6231    1.8802   -0.1932 H   0  0  0  0  0  0  0  0  0  0  0  0
   -2.7801    1.4500    1.3311 H   0  0  0  0  0  0  0  0  0  0  0  0
   -4.7626   -0.0467    1.9521 H   0  0  0  0  0  0  0  0  0  0  0  0
   -5.0528    1.7227    1.9169 H   0  0  0  0  0  0  0  0  0  0  0  0
   -6.0862    1.5171   -0.3852 H   0  0  0  0  0  0  0  0  0  0  0  0
   -5.8133   -0.2553   -0.3305 H   0  0  0  0  0  0  0  0  0  0  0  0
   -7.2506   -0.3748    1.7808 H   0  0  0  0  0  0  0  0  0  0  0  0
   -8.0926    0.0594    0.2580 H   0  0  0  0  0  0  0  0  0  0  0  0
   -7.9636    2.5093    0.8981 H   0  0  0  0  0  0  0  0  0  0  0  0
   -7.2698    2.0131    2.4981 H   0  0  0  0  0  0  0  0  0  0  0  0
   -8.9265    1.4957    2.0357 H   0  0  0  0  0  0  0  0  0  0  0  0
  1  2  1  0
  2  3  1  0
  3  4  1  0
  4  5  1  0
  5  6  1  0
  6  7  1  0
  7  8  1  0
  8  9  1  0
  9 10  1  0
 10 11  1  0
 10 12  1  0
 10 13  1  0
 13 14  1  0
 14 15  1  0
 15 16  1  0
 16 17  1  0
 17 18  1  0
 18 19  1  0
  1 20  1  0
  1 21  1  0
  1 22  1  0
  2 23  1  0
  2 24  1  0
  3 25  1  0
  3 26  1  0
  4 27  1  0
  4 28  1  0
  5 29  1  0
  5 30  1  0
  6 31  1  0
  6 32  1  0
  7 33  1  0
  7 34  1  0
  8 35  1  0
  8 36  1  0
  9 37  1  0
  9 38  1  0
 11 39  1  0
 11 40  1  0
 11 41  1  0
 12 42  1  0
 12 43  1  0
 12 44  1  0
 13 45  1  0
 13 46  1  0
 14 47  1  0
 14 48  1  0
 15 49  1  0
 15 50  1  0
 16 51  1  0
 16 52  1  0
 17 53  1  0
 17 54  1  0
 18 55  1  0
 18 56  1  0
 19 57  1  0
 19 58  1  0
 19 59  1  0
M  CHG  1  10   1
M  END
