215_CCCCCCCCC[N+](CC)(CC)CCCCC
     RDKit          3D

 59 58  0  0  0  0  0  0  0  0999 V2000
    6.7833    1.1585   -0.0263 C   0  0  0  0  0  0  0  0  0  0  0  0
    5.3347    1.6442   -0.0515 C   0  0  0  0  0  0  0  0  0  0  0  0
    4.7086    1.5897   -1.4560 C   0  0  0  0  0  0  0  0  0  0  0  0
    4.6324    0.1816   -2.0809 C   0  0  0  0  0  0  0  0  0  0  0  0
    3.8793   -0.8662   -1.2415 C   0  0  0  0  0  0  0  0  0  0  0  0
    2.4100   -0.4922   -0.9971 C   0  0  0  0  0  0  0  0  0  0  0  0
    1.6648   -1.6311   -0.2842 C   0  0  0  0  0  0  0  0  0  0  0  0
    0.1574   -1.3599   -0.1376 C   0  0  0  0  0  0  0  0  0  0  0  0
   -0.1435   -0.2166    0.8620 C   0  0  0  0  0  0  0  0  0  0  0  0
   -1.5888   -0.0289    1.2452 N   0  0  0  0  0  0  0  0  0  0  0  0
   -2.1279   -1.2286    1.9806 C   0  0  0  0  0  0  0  0  0  0  0  0
   -1.3533   -1.6346    3.2490 C   0  0  0  0  0  0  0  0  0  0  0  0
   -1.6131    1.1907    2.1342 C   0  0  0  0  0  0  0  0  0  0  0  0
   -2.9247    1.4419    2.9112 C   0  0  0  0  0  0  0  0  0  0  0  0
   -2.3989    0.2976    0.0074 C   0  0  0  0  0  0  0  0  0  0  0  0
   -3.1016   -0.8888   -0.7066 C   0  0  0  0  0  0  0  0  0  0  0  0
   -3.6324   -0.5159   -2.1040 C   0  0  0  0  0  0  0  0  0  0  0  0
   -4.6883    0.6042   -2.1222 C   0  0  0  0  0  0  0  0  0  0  0  0
   -5.9471    0.2535   -1.3297 C   0  0  0  0  0  0  0  0  0  0  0  0
    7.2191    1.3496    0.9769 H   0  0  0  0  0  0  0  0  0  0  0  0
    6.8339    0.0672   -0.2220 H   0  0  0  0  0  0  0  0  0  0  0  0
    7.3880    1.7002   -0.7843 H   0  0  0  0  0  0  0  0  0  0  0  0
    5.3169    2.7007    0.2933 H   0  0  0  0  0  0  0  0  0  0  0  0
    4.7284    1.0589    0.6711 H   0  0  0  0  0  0  0  0  0  0  0  0
    5.3004    2.2410   -2.1355 H   0  0  0  0  0  0  0  0  0  0  0  0
    3.6901    2.0305   -1.4121 H   0  0  0  0  0  0  0  0  0  0  0  0
    4.1372    0.2665   -3.0727 H   0  0  0  0  0  0  0  0  0  0  0  0
    5.6611   -0.1896   -2.2756 H   0  0  0  0  0  0  0  0  0  0  0  0
    4.3976   -1.0293   -0.2730 H   0  0  0  0  0  0  0  0  0  0  0  0
    3.9180   -1.8296   -1.7957 H   0  0  0  0  0  0  0  0  0  0  0  0
    2.3703    0.4185   -0.3654 H   0  0  0  0  0  0  0  0  0  0  0  0
    1.9168   -0.2777   -1.9705 H   0  0  0  0  0  0  0  0  0  0  0  0
    1.7864   -2.5648   -0.8763 H   0  0  0  0  0  0  0  0  0  0  0  0
    2.1155   -1.8094    0.7168 H   0  0  0  0  0  0  0  0  0  0  0  0
   -0.3000   -2.3074    0.2061 H   0  0  0  0  0  0  0  0  0  0  0  0
   -0.2519   -1.1112   -1.1392 H   0  0  0  0  0  0  0  0  0  0  0  0
    0.2407    0.7251    0.4081 H   0  0  0  0  0  0  0  0  0  0  0  0
    0.4845   -0.3703    1.7664 H   0  0  0  0  0  0  0  0  0  0  0  0
   -2.1431   -2.1307    1.3407 H   0  0  0  0  0  0  0  0  0  0  0  0
   -3.1927   -1.0682    2.2553 H   0  0  0  0  0  0  0  0  0  0  0  0
   -0.3613   -2.0587    2.9905 H   0  0  0  0  0  0  0  0  0  0  0  0
   -1.2259   -0.7947    3.9583 H   0  0  0  0  0  0  0  0  0  0  0  0
   -1.9203   -2.4309    3.7758 H   0  0  0  0  0  0  0  0  0  0  0  0
   -1.4039    2.1046    1.5301 H   0  0  0  0  0  0  0  0  0  0  0  0
   -0.7959    1.1587    2.8895 H   0  0  0  0  0  0  0  0  0  0  0  0
   -3.8273    1.3682    2.2744 H   0  0  0  0  0  0  0  0  0  0  0  0
   -3.0279    0.7340    3.7587 H   0  0  0  0  0  0  0  0  0  0  0  0
   -2.8982    2.4646    3.3431 H   0  0  0  0  0  0  0  0  0  0  0  0
   -3.2054    1.0204    0.2384 H   0  0  0  0  0  0  0  0  0  0  0  0
   -1.7682    0.8342   -0.7379 H   0  0  0  0  0  0  0  0  0  0  0  0
   -2.4051   -1.7354   -0.8513 H   0  0  0  0  0  0  0  0  0  0  0  0
   -3.9406   -1.2648   -0.0844 H   0  0  0  0  0  0  0  0  0  0  0  0
   -4.0695   -1.4259   -2.5703 H   0  0  0  0  0  0  0  0  0  0  0  0
   -2.7767   -0.2064   -2.7430 H   0  0  0  0  0  0  0  0  0  0  0  0
   -4.9824    0.7821   -3.1793 H   0  0  0  0  0  0  0  0  0  0  0  0
   -4.2581    1.5549   -1.7433 H   0  0  0  0  0  0  0  0  0  0  0  0
   -6.3439   -0.7343   -1.6466 H   0  0  0  0  0  0  0  0  0  0  0  0
   -5.7324    0.2367   -0.2409 H   0  0  0  0  0  0  0  0  0  0  0  0
   -6.7255    1.0235   -1.5142 H   0  0  0  0  0  0  0  0  0  0  0  0
  1  2  1  0
  2  3  1  0
  3  4  1  0
  4  5  1  0
  5  6  1  0
  6  7  1  0
  7  8  1  0
  8  9  1  0
  9 10  1  0
 10 11  1  0
 11 12  1  0
 10 13  1  0
 13 14  1  0
 10 15  1  0
 15 16  1  0
 16 17  1  0
 17 18  1  0
 18 19  1  0
  1 20  1  0
  1 21  1  0
  1 22  1  0
  2 23  1  0
  2 24  1  0
  3 25  1  0
  3 26  1  0
  4 27  1  0
  4 28  1  0
  5 29  1  0
  5 30  1  0
  6 31  1  0
  6 32  1  0
  7 33  1  0
  7 34  1  0
  8 35  1  0
  8 36  1  0
  9 37  1  0
  9 38  1  0
 11 39  1  0
 11 40  1  0
 12 41  1  0
 12 42  1  0
 12 43  1  0
 13 44  1  0
 13 45  1  0
 14 46  1  0
 14 47  1  0
 14 48  1  0
 15 49  1  0
 15 50  1  0
 16 51  1  0
 16 52  1  0
 17 53  1  0
 17 54  1  0
 18 55  1  0
 18 56  1  0
 19 57  1  0
 19 58  1  0
 19 59  1  0
M  CHG  1  10   1
M  END
