217_CCCCCCCCC[N+](CCC)(CCC)CCC
     RDKit          3D

 59 58  0  0  0  0  0  0  0  0999 V2000
    6.8463    0.7105    0.2954 C   0  0  0  0  0  0  0  0  0  0  0  0
    5.7553    1.3791   -0.5400 C   0  0  0  0  0  0  0  0  0  0  0  0
    5.0315    0.3990   -1.4803 C   0  0  0  0  0  0  0  0  0  0  0  0
    4.2834   -0.7442   -0.7708 C   0  0  0  0  0  0  0  0  0  0  0  0
    3.1546   -0.2442    0.1428 C   0  0  0  0  0  0  0  0  0  0  0  0
    2.3107   -1.4170    0.6640 C   0  0  0  0  0  0  0  0  0  0  0  0
    1.2882   -0.9912    1.7335 C   0  0  0  0  0  0  0  0  0  0  0  0
    0.2255    0.0105    1.2446 C   0  0  0  0  0  0  0  0  0  0  0  0
   -0.6152   -0.5312    0.0562 C   0  0  0  0  0  0  0  0  0  0  0  0
   -1.9330    0.1648   -0.1729 N   0  0  0  0  0  0  0  0  0  0  0  0
   -2.9218   -0.0484    0.9478 C   0  0  0  0  0  0  0  0  0  0  0  0
   -2.8817   -1.4179    1.6734 C   0  0  0  0  0  0  0  0  0  0  0  0
   -4.0394   -1.5454    2.6611 C   0  0  0  0  0  0  0  0  0  0  0  0
   -1.6434    1.6441   -0.2808 C   0  0  0  0  0  0  0  0  0  0  0  0
   -2.8391    2.5465   -0.6841 C   0  0  0  0  0  0  0  0  0  0  0  0
   -2.5077    4.0229   -0.4749 C   0  0  0  0  0  0  0  0  0  0  0  0
   -2.5061   -0.2744   -1.4986 C   0  0  0  0  0  0  0  0  0  0  0  0
   -2.7676   -1.7923   -1.7171 C   0  0  0  0  0  0  0  0  0  0  0  0
   -4.2471   -2.1648   -1.5847 C   0  0  0  0  0  0  0  0  0  0  0  0
    7.5369    0.1337   -0.3559 H   0  0  0  0  0  0  0  0  0  0  0  0
    7.4310    1.4888    0.8295 H   0  0  0  0  0  0  0  0  0  0  0  0
    6.3995    0.0354    1.0545 H   0  0  0  0  0  0  0  0  0  0  0  0
    5.0302    1.8890    0.1282 H   0  0  0  0  0  0  0  0  0  0  0  0
    6.2303    2.1671   -1.1637 H   0  0  0  0  0  0  0  0  0  0  0  0
    4.3083    0.9723   -2.1006 H   0  0  0  0  0  0  0  0  0  0  0  0
    5.7750   -0.0443   -2.1782 H   0  0  0  0  0  0  0  0  0  0  0  0
    3.8453   -1.3974   -1.5572 H   0  0  0  0  0  0  0  0  0  0  0  0
    4.9957   -1.3675   -0.1897 H   0  0  0  0  0  0  0  0  0  0  0  0
    2.5083    0.4522   -0.4328 H   0  0  0  0  0  0  0  0  0  0  0  0
    3.5900    0.2986    1.0086 H   0  0  0  0  0  0  0  0  0  0  0  0
    2.9875   -2.1690    1.1259 H   0  0  0  0  0  0  0  0  0  0  0  0
    1.7944   -1.9185   -0.1822 H   0  0  0  0  0  0  0  0  0  0  0  0
    1.8308   -0.5428    2.5941 H   0  0  0  0  0  0  0  0  0  0  0  0
    0.7753   -1.9010    2.1149 H   0  0  0  0  0  0  0  0  0  0  0  0
   -0.4309    0.2454    2.1072 H   0  0  0  0  0  0  0  0  0  0  0  0
    0.7292    0.9572    0.9578 H   0  0  0  0  0  0  0  0  0  0  0  0
    0.0146   -0.4497   -0.8589 H   0  0  0  0  0  0  0  0  0  0  0  0
   -0.7519   -1.6154    0.2206 H   0  0  0  0  0  0  0  0  0  0  0  0
   -3.9579    0.1118    0.5755 H   0  0  0  0  0  0  0  0  0  0  0  0
   -2.7810    0.7178    1.7440 H   0  0  0  0  0  0  0  0  0  0  0  0
   -2.9487   -2.2630    0.9676 H   0  0  0  0  0  0  0  0  0  0  0  0
   -1.9404   -1.5264    2.2501 H   0  0  0  0  0  0  0  0  0  0  0  0
   -3.9930   -0.7338    3.4182 H   0  0  0  0  0  0  0  0  0  0  0  0
   -5.0114   -1.4933    2.1259 H   0  0  0  0  0  0  0  0  0  0  0  0
   -3.9766   -2.5227    3.1848 H   0  0  0  0  0  0  0  0  0  0  0  0
   -1.2719    2.0355    0.6918 H   0  0  0  0  0  0  0  0  0  0  0  0
   -0.8263    1.8243   -1.0178 H   0  0  0  0  0  0  0  0  0  0  0  0
   -3.7420    2.3090   -0.0856 H   0  0  0  0  0  0  0  0  0  0  0  0
   -3.0753    2.4146   -1.7609 H   0  0  0  0  0  0  0  0  0  0  0  0
   -2.3191    4.2287    0.6003 H   0  0  0  0  0  0  0  0  0  0  0  0
   -3.3630    4.6477   -0.8086 H   0  0  0  0  0  0  0  0  0  0  0  0
   -1.6100    4.3044   -1.0657 H   0  0  0  0  0  0  0  0  0  0  0  0
   -3.4639    0.2490   -1.7040 H   0  0  0  0  0  0  0  0  0  0  0  0
   -1.8220    0.0526   -2.3163 H   0  0  0  0  0  0  0  0  0  0  0  0
   -2.1596   -2.4600   -1.0870 H   0  0  0  0  0  0  0  0  0  0  0  0
   -2.4715   -2.0426   -2.7596 H   0  0  0  0  0  0  0  0  0  0  0  0
   -4.8425   -1.6505   -2.3690 H   0  0  0  0  0  0  0  0  0  0  0  0
   -4.6492   -1.8830   -0.5919 H   0  0  0  0  0  0  0  0  0  0  0  0
   -4.3676   -3.2607   -1.7163 H   0  0  0  0  0  0  0  0  0  0  0  0
  1  2  1  0
  2  3  1  0
  3  4  1  0
  4  5  1  0
  5  6  1  0
  6  7  1  0
  7  8  1  0
  8  9  1  0
  9 10  1  0
 10 11  1  0
 11 12  1  0
 12 13  1  0
 10 14  1  0
 14 15  1  0
 15 16  1  0
 10 17  1  0
 17 18  1  0
 18 19  1  0
  1 20  1  0
  1 21  1  0
  1 22  1  0
  2 23  1  0
  2 24  1  0
  3 25  1  0
  3 26  1  0
  4 27  1  0
  4 28  1  0
  5 29  1  0
  5 30  1  0
  6 31  1  0
  6 32  1  0
  7 33  1  0
  7 34  1  0
  8 35  1  0
  8 36  1  0
  9 37  1  0
  9 38  1  0
 11 39  1  0
 11 40  1  0
 12 41  1  0
 12 42  1  0
 13 43  1  0
 13 44  1  0
 13 45  1  0
 14 46  1  0
 14 47  1  0
 15 48  1  0
 15 49  1  0
 16 50  1  0
 16 51  1  0
 16 52  1  0
 17 53  1  0
 17 54  1  0
 18 55  1  0
 18 56  1  0
 19 57  1  0
 19 58  1  0
 19 59  1  0
M  CHG  1  10   1
M  END
