222_CCCCCCCC[N+](CC)(CC)CCCCCC
     RDKit          3D

 59 58  0  0  0  0  0  0  0  0999 V2000
   -7.2829    0.8301    1.9440 C   0  0  0  0  0  0  0  0  0  0  0  0
   -6.0189    1.3187    1.2418 C   0  0  0  0  0  0  0  0  0  0  0  0
   -5.3426    0.1783    0.4662 C   0  0  0  0  0  0  0  0  0  0  0  0
   -4.1376    0.6556   -0.3604 C   0  0  0  0  0  0  0  0  0  0  0  0
   -2.9033    0.9478    0.5096 C   0  0  0  0  0  0  0  0  0  0  0  0
   -1.7164    1.5149   -0.2929 C   0  0  0  0  0  0  0  0  0  0  0  0
   -1.2413    0.6767   -1.5032 C   0  0  0  0  0  0  0  0  0  0  0  0
   -0.8589   -0.8086   -1.2100 C   0  0  0  0  0  0  0  0  0  0  0  0
    0.5863   -1.1357   -0.8934 N   0  0  0  0  0  0  0  0  0  0  0  0
    0.5794   -2.4527   -0.1521 C   0  0  0  0  0  0  0  0  0  0  0  0
    0.1859   -2.3890    1.3386 C   0  0  0  0  0  0  0  0  0  0  0  0
    1.3455   -1.3946   -2.1678 C   0  0  0  0  0  0  0  0  0  0  0  0
    1.3493   -0.2643   -3.2082 C   0  0  0  0  0  0  0  0  0  0  0  0
    1.2466   -0.0582   -0.0757 C   0  0  0  0  0  0  0  0  0  0  0  0
    2.7094   -0.3411    0.3830 C   0  0  0  0  0  0  0  0  0  0  0  0
    3.7401    0.5315   -0.3560 C   0  0  0  0  0  0  0  0  0  0  0  0
    5.1904    0.1882    0.0207 C   0  0  0  0  0  0  0  0  0  0  0  0
    5.5476    0.6109    1.4532 C   0  0  0  0  0  0  0  0  0  0  0  0
    7.0308    0.3904    1.7369 C   0  0  0  0  0  0  0  0  0  0  0  0
   -7.0360    0.0192    2.6624 H   0  0  0  0  0  0  0  0  0  0  0  0
   -7.7465    1.6704    2.5026 H   0  0  0  0  0  0  0  0  0  0  0  0
   -8.0164    0.4510    1.2007 H   0  0  0  0  0  0  0  0  0  0  0  0
   -6.2922    2.1399    0.5437 H   0  0  0  0  0  0  0  0  0  0  0  0
   -5.3277    1.7240    2.0101 H   0  0  0  0  0  0  0  0  0  0  0  0
   -6.0846   -0.2639   -0.2346 H   0  0  0  0  0  0  0  0  0  0  0  0
   -5.0252   -0.6237    1.1687 H   0  0  0  0  0  0  0  0  0  0  0  0
   -4.4140    1.5584   -0.9481 H   0  0  0  0  0  0  0  0  0  0  0  0
   -3.8881   -0.1544   -1.0782 H   0  0  0  0  0  0  0  0  0  0  0  0
   -2.5988    0.0369    1.0652 H   0  0  0  0  0  0  0  0  0  0  0  0
   -3.1667    1.7069    1.2751 H   0  0  0  0  0  0  0  0  0  0  0  0
   -2.0108    2.5171   -0.6748 H   0  0  0  0  0  0  0  0  0  0  0  0
   -0.8755    1.6976    0.4032 H   0  0  0  0  0  0  0  0  0  0  0  0
   -0.4264    1.2314   -1.9988 H   0  0  0  0  0  0  0  0  0  0  0  0
   -2.0610    0.6767   -2.2533 H   0  0  0  0  0  0  0  0  0  0  0  0
   -1.5432   -1.1854   -0.4294 H   0  0  0  0  0  0  0  0  0  0  0  0
   -1.1799   -1.4005   -2.0981 H   0  0  0  0  0  0  0  0  0  0  0  0
    1.5650   -2.9654   -0.2059 H   0  0  0  0  0  0  0  0  0  0  0  0
   -0.1191   -3.1663   -0.6491 H   0  0  0  0  0  0  0  0  0  0  0  0
    1.0083   -1.9591    1.9462 H   0  0  0  0  0  0  0  0  0  0  0  0
    0.0079   -3.4199    1.7112 H   0  0  0  0  0  0  0  0  0  0  0  0
   -0.7371   -1.8018    1.5113 H   0  0  0  0  0  0  0  0  0  0  0  0
    0.9329   -2.2932   -2.6832 H   0  0  0  0  0  0  0  0  0  0  0  0
    2.4052   -1.6496   -1.9513 H   0  0  0  0  0  0  0  0  0  0  0  0
    1.7016    0.6964   -2.7867 H   0  0  0  0  0  0  0  0  0  0  0  0
    2.0461   -0.5369   -4.0288 H   0  0  0  0  0  0  0  0  0  0  0  0
    0.3464   -0.1446   -3.6666 H   0  0  0  0  0  0  0  0  0  0  0  0
    1.2351    0.9136   -0.6049 H   0  0  0  0  0  0  0  0  0  0  0  0
    0.6463    0.1279    0.8395 H   0  0  0  0  0  0  0  0  0  0  0  0
    2.7730   -0.1076    1.4672 H   0  0  0  0  0  0  0  0  0  0  0  0
    2.9951   -1.4038    0.2789 H   0  0  0  0  0  0  0  0  0  0  0  0
    3.5435    1.6065   -0.1489 H   0  0  0  0  0  0  0  0  0  0  0  0
    3.6334    0.3762   -1.4489 H   0  0  0  0  0  0  0  0  0  0  0  0
    5.3646   -0.9030   -0.1068 H   0  0  0  0  0  0  0  0  0  0  0  0
    5.8622    0.7205   -0.6884 H   0  0  0  0  0  0  0  0  0  0  0  0
    5.3107    1.6873    1.5999 H   0  0  0  0  0  0  0  0  0  0  0  0
    4.9606    0.0160    2.1844 H   0  0  0  0  0  0  0  0  0  0  0  0
    7.6510    1.0060    1.0511 H   0  0  0  0  0  0  0  0  0  0  0  0
    7.2931   -0.6812    1.6068 H   0  0  0  0  0  0  0  0  0  0  0  0
    7.2575    0.6872    2.7825 H   0  0  0  0  0  0  0  0  0  0  0  0
  1  2  1  0
  2  3  1  0
  3  4  1  0
  4  5  1  0
  5  6  1  0
  6  7  1  0
  7  8  1  0
  8  9  1  0
  9 10  1  0
 10 11  1  0
  9 12  1  0
 12 13  1  0
  9 14  1  0
 14 15  1  0
 15 16  1  0
 16 17  1  0
 17 18  1  0
 18 19  1  0
  1 20  1  0
  1 21  1  0
  1 22  1  0
  2 23  1  0
  2 24  1  0
  3 25  1  0
  3 26  1  0
  4 27  1  0
  4 28  1  0
  5 29  1  0
  5 30  1  0
  6 31  1  0
  6 32  1  0
  7 33  1  0
  7 34  1  0
  8 35  1  0
  8 36  1  0
 10 37  1  0
 10 38  1  0
 11 39  1  0
 11 40  1  0
 11 41  1  0
 12 42  1  0
 12 43  1  0
 13 44  1  0
 13 45  1  0
 13 46  1  0
 14 47  1  0
 14 48  1  0
 15 49  1  0
 15 50  1  0
 16 51  1  0
 16 52  1  0
 17 53  1  0
 17 54  1  0
 18 55  1  0
 18 56  1  0
 19 57  1  0
 19 58  1  0
 19 59  1  0
M  CHG  1   9   1
M  END
