225_CCCCCCCC[N+](CCC)(CCC)CCCC
     RDKit          3D

 59 58  0  0  0  0  0  0  0  0999 V2000
    6.1923   -0.9731    0.7751 C   0  0  0  0  0  0  0  0  0  0  0  0
    6.4381   -0.8985   -0.7303 C   0  0  0  0  0  0  0  0  0  0  0  0
    5.5125    0.1014   -1.4434 C   0  0  0  0  0  0  0  0  0  0  0  0
    4.0275   -0.3179   -1.4357 C   0  0  0  0  0  0  0  0  0  0  0  0
    3.2126    0.4471   -0.3815 C   0  0  0  0  0  0  0  0  0  0  0  0
    1.7542   -0.0296   -0.3588 C   0  0  0  0  0  0  0  0  0  0  0  0
    0.9175    0.7800    0.6450 C   0  0  0  0  0  0  0  0  0  0  0  0
   -0.3647    0.0649    1.1600 C   0  0  0  0  0  0  0  0  0  0  0  0
   -1.5312   -0.1011    0.2098 N   0  0  0  0  0  0  0  0  0  0  0  0
   -2.7859   -0.2760    1.0226 C   0  0  0  0  0  0  0  0  0  0  0  0
   -2.8133   -1.5265    1.9377 C   0  0  0  0  0  0  0  0  0  0  0  0
   -4.1373   -1.6171    2.6924 C   0  0  0  0  0  0  0  0  0  0  0  0
   -1.2802   -1.3125   -0.6539 C   0  0  0  0  0  0  0  0  0  0  0  0
   -2.4751   -1.8097   -1.5112 C   0  0  0  0  0  0  0  0  0  0  0  0
   -2.0733   -3.0251   -2.3446 C   0  0  0  0  0  0  0  0  0  0  0  0
   -1.7098    1.0975   -0.6828 C   0  0  0  0  0  0  0  0  0  0  0  0
   -1.9081    2.4625    0.0413 C   0  0  0  0  0  0  0  0  0  0  0  0
   -3.3519    2.9794   -0.0642 C   0  0  0  0  0  0  0  0  0  0  0  0
   -3.5215    4.3020    0.6778 C   0  0  0  0  0  0  0  0  0  0  0  0
    5.2133   -1.4517    0.9855 H   0  0  0  0  0  0  0  0  0  0  0  0
    6.2188    0.0420    1.2253 H   0  0  0  0  0  0  0  0  0  0  0  0
    6.9849   -1.5904    1.2481 H   0  0  0  0  0  0  0  0  0  0  0  0
    7.4902   -0.5808   -0.8967 H   0  0  0  0  0  0  0  0  0  0  0  0
    6.3204   -1.9102   -1.1759 H   0  0  0  0  0  0  0  0  0  0  0  0
    5.6479    1.1177   -1.0117 H   0  0  0  0  0  0  0  0  0  0  0  0
    5.8490    0.1634   -2.5016 H   0  0  0  0  0  0  0  0  0  0  0  0
    3.5930   -0.0977   -2.4359 H   0  0  0  0  0  0  0  0  0  0  0  0
    3.9298   -1.4139   -1.2727 H   0  0  0  0  0  0  0  0  0  0  0  0
    3.2388    1.5338   -0.6183 H   0  0  0  0  0  0  0  0  0  0  0  0
    3.6609    0.2998    0.6231 H   0  0  0  0  0  0  0  0  0  0  0  0
    1.3374    0.1099   -1.3773 H   0  0  0  0  0  0  0  0  0  0  0  0
    1.7309   -1.1090   -0.0924 H   0  0  0  0  0  0  0  0  0  0  0  0
    1.5452    0.9611    1.5460 H   0  0  0  0  0  0  0  0  0  0  0  0
    0.7048    1.7871    0.2359 H   0  0  0  0  0  0  0  0  0  0  0  0
   -0.6808    0.6353    2.0620 H   0  0  0  0  0  0  0  0  0  0  0  0
   -0.0483   -0.9181    1.5746 H   0  0  0  0  0  0  0  0  0  0  0  0
   -3.6822   -0.2893    0.3640 H   0  0  0  0  0  0  0  0  0  0  0  0
   -2.9360    0.6013    1.6890 H   0  0  0  0  0  0  0  0  0  0  0  0
   -2.6949   -2.4605    1.3537 H   0  0  0  0  0  0  0  0  0  0  0  0
   -1.9972   -1.4771    2.6879 H   0  0  0  0  0  0  0  0  0  0  0  0
   -4.1330   -2.5148    3.3461 H   0  0  0  0  0  0  0  0  0  0  0  0
   -4.2834   -0.7172    3.3272 H   0  0  0  0  0  0  0  0  0  0  0  0
   -4.9834   -1.7033    1.9776 H   0  0  0  0  0  0  0  0  0  0  0  0
   -0.9288   -2.1701   -0.0385 H   0  0  0  0  0  0  0  0  0  0  0  0
   -0.4597   -1.1108   -1.3664 H   0  0  0  0  0  0  0  0  0  0  0  0
   -2.8197   -1.0259   -2.2140 H   0  0  0  0  0  0  0  0  0  0  0  0
   -3.3304   -2.1165   -0.8770 H   0  0  0  0  0  0  0  0  0  0  0  0
   -1.7531   -3.8584   -1.6832 H   0  0  0  0  0  0  0  0  0  0  0  0
   -1.2424   -2.7644   -3.0344 H   0  0  0  0  0  0  0  0  0  0  0  0
   -2.9404   -3.3663   -2.9487 H   0  0  0  0  0  0  0  0  0  0  0  0
   -0.8436    1.1944   -1.3733 H   0  0  0  0  0  0  0  0  0  0  0  0
   -2.5726    0.9478   -1.3643 H   0  0  0  0  0  0  0  0  0  0  0  0
   -1.6109    2.4225    1.1070 H   0  0  0  0  0  0  0  0  0  0  0  0
   -1.2433    3.2131   -0.4406 H   0  0  0  0  0  0  0  0  0  0  0  0
   -3.6143    3.1339   -1.1335 H   0  0  0  0  0  0  0  0  0  0  0  0
   -4.0595    2.2382    0.3628 H   0  0  0  0  0  0  0  0  0  0  0  0
   -4.5690    4.6552    0.5736 H   0  0  0  0  0  0  0  0  0  0  0  0
   -3.2976    4.1695    1.7578 H   0  0  0  0  0  0  0  0  0  0  0  0
   -2.8428    5.0725    0.2538 H   0  0  0  0  0  0  0  0  0  0  0  0
  1  2  1  0
  2  3  1  0
  3  4  1  0
  4  5  1  0
  5  6  1  0
  6  7  1  0
  7  8  1  0
  8  9  1  0
  9 10  1  0
 10 11  1  0
 11 12  1  0
  9 13  1  0
 13 14  1  0
 14 15  1  0
  9 16  1  0
 16 17  1  0
 17 18  1  0
 18 19  1  0
  1 20  1  0
  1 21  1  0
  1 22  1  0
  2 23  1  0
  2 24  1  0
  3 25  1  0
  3 26  1  0
  4 27  1  0
  4 28  1  0
  5 29  1  0
  5 30  1  0
  6 31  1  0
  6 32  1  0
  7 33  1  0
  7 34  1  0
  8 35  1  0
  8 36  1  0
 10 37  1  0
 10 38  1  0
 11 39  1  0
 11 40  1  0
 12 41  1  0
 12 42  1  0
 12 43  1  0
 13 44  1  0
 13 45  1  0
 14 46  1  0
 14 47  1  0
 15 48  1  0
 15 49  1  0
 15 50  1  0
 16 51  1  0
 16 52  1  0
 17 53  1  0
 17 54  1  0
 18 55  1  0
 18 56  1  0
 19 57  1  0
 19 58  1  0
 19 59  1  0
M  CHG  1   9   1
M  END
