227_CCCCCCC[N+](C)(CCCC)CCCCCC
     RDKit          3D

 59 58  0  0  0  0  0  0  0  0999 V2000
   -5.0919   -1.2040   -1.8895 C   0  0  0  0  0  0  0  0  0  0  0  0
   -5.7475   -0.8731   -0.5491 C   0  0  0  0  0  0  0  0  0  0  0  0
   -5.4162    0.5446   -0.0497 C   0  0  0  0  0  0  0  0  0  0  0  0
   -3.9201    0.8079    0.1987 C   0  0  0  0  0  0  0  0  0  0  0  0
   -3.3319   -0.0874    1.3042 C   0  0  0  0  0  0  0  0  0  0  0  0
   -1.9040    0.3286    1.6969 C   0  0  0  0  0  0  0  0  0  0  0  0
   -0.8466   -0.1550    0.6654 C   0  0  0  0  0  0  0  0  0  0  0  0
    0.5636    0.3632    0.8336 N   0  0  0  0  0  0  0  0  0  0  0  0
    0.9032    0.5934    2.2659 C   0  0  0  0  0  0  0  0  0  0  0  0
    0.7836    1.6133    0.0287 C   0  0  0  0  0  0  0  0  0  0  0  0
   -0.2331    2.7564    0.2577 C   0  0  0  0  0  0  0  0  0  0  0  0
    0.1644    4.0498   -0.4733 C   0  0  0  0  0  0  0  0  0  0  0  0
    0.0303    3.9403   -1.9923 C   0  0  0  0  0  0  0  0  0  0  0  0
    1.4673   -0.7184    0.3001 C   0  0  0  0  0  0  0  0  0  0  0  0
    2.9737   -0.3604    0.1641 C   0  0  0  0  0  0  0  0  0  0  0  0
    3.8203   -1.5713   -0.2677 C   0  0  0  0  0  0  0  0  0  0  0  0
    4.1607   -2.5013    0.9108 C   0  0  0  0  0  0  0  0  0  0  0  0
    4.9338   -3.7533    0.4680 C   0  0  0  0  0  0  0  0  0  0  0  0
    6.3671   -3.4438    0.0366 C   0  0  0  0  0  0  0  0  0  0  0  0
   -5.3070   -0.4092   -2.6350 H   0  0  0  0  0  0  0  0  0  0  0  0
   -3.9941   -1.3164   -1.7709 H   0  0  0  0  0  0  0  0  0  0  0  0
   -5.4962   -2.1654   -2.2704 H   0  0  0  0  0  0  0  0  0  0  0  0
   -5.4584   -1.6323    0.2072 H   0  0  0  0  0  0  0  0  0  0  0  0
   -6.8496   -0.9449   -0.6749 H   0  0  0  0  0  0  0  0  0  0  0  0
   -5.9769    0.7289    0.8926 H   0  0  0  0  0  0  0  0  0  0  0  0
   -5.7859    1.2825   -0.7949 H   0  0  0  0  0  0  0  0  0  0  0  0
   -3.3563    0.6860   -0.7481 H   0  0  0  0  0  0  0  0  0  0  0  0
   -3.8145    1.8720    0.5037 H   0  0  0  0  0  0  0  0  0  0  0  0
   -3.3301   -1.1504    0.9820 H   0  0  0  0  0  0  0  0  0  0  0  0
   -3.9765   -0.0080    2.2071 H   0  0  0  0  0  0  0  0  0  0  0  0
   -1.8820    1.4221    1.8568 H   0  0  0  0  0  0  0  0  0  0  0  0
   -1.6809   -0.1463    2.6771 H   0  0  0  0  0  0  0  0  0  0  0  0
   -0.8718   -1.2676    0.7416 H   0  0  0  0  0  0  0  0  0  0  0  0
   -1.2011    0.0582   -0.3664 H   0  0  0  0  0  0  0  0  0  0  0  0
    0.2442    1.3453    2.7415 H   0  0  0  0  0  0  0  0  0  0  0  0
    0.8205   -0.3488    2.8519 H   0  0  0  0  0  0  0  0  0  0  0  0
    1.9292    0.9934    2.3910 H   0  0  0  0  0  0  0  0  0  0  0  0
    1.7897    2.0341    0.2495 H   0  0  0  0  0  0  0  0  0  0  0  0
    0.7675    1.3608   -1.0551 H   0  0  0  0  0  0  0  0  0  0  0  0
   -0.2854    3.0029    1.3369 H   0  0  0  0  0  0  0  0  0  0  0  0
   -1.2430    2.4562   -0.0915 H   0  0  0  0  0  0  0  0  0  0  0  0
    1.2060    4.3361   -0.2108 H   0  0  0  0  0  0  0  0  0  0  0  0
   -0.5037    4.8675   -0.1253 H   0  0  0  0  0  0  0  0  0  0  0  0
    0.1971    4.9384   -2.4495 H   0  0  0  0  0  0  0  0  0  0  0  0
    0.7878    3.2429   -2.4054 H   0  0  0  0  0  0  0  0  0  0  0  0
   -0.9870    3.5910   -2.2698 H   0  0  0  0  0  0  0  0  0  0  0  0
    1.1207   -1.0294   -0.7137 H   0  0  0  0  0  0  0  0  0  0  0  0
    1.3795   -1.6243    0.9400 H   0  0  0  0  0  0  0  0  0  0  0  0
    3.3928    0.0496    1.1037 H   0  0  0  0  0  0  0  0  0  0  0  0
    3.0940    0.4108   -0.6259 H   0  0  0  0  0  0  0  0  0  0  0  0
    4.7670   -1.1841   -0.7011 H   0  0  0  0  0  0  0  0  0  0  0  0
    3.2934   -2.1388   -1.0660 H   0  0  0  0  0  0  0  0  0  0  0  0
    3.2245   -2.8419    1.3994 H   0  0  0  0  0  0  0  0  0  0  0  0
    4.7514   -1.9463    1.6723 H   0  0  0  0  0  0  0  0  0  0  0  0
    4.9747   -4.4612    1.3242 H   0  0  0  0  0  0  0  0  0  0  0  0
    4.3962   -4.2617   -0.3617 H   0  0  0  0  0  0  0  0  0  0  0  0
    6.3770   -2.8529   -0.9024 H   0  0  0  0  0  0  0  0  0  0  0  0
    6.9012   -2.8836    0.8333 H   0  0  0  0  0  0  0  0  0  0  0  0
    6.9092   -4.3948   -0.1496 H   0  0  0  0  0  0  0  0  0  0  0  0
  1  2  1  0
  2  3  1  0
  3  4  1  0
  4  5  1  0
  5  6  1  0
  6  7  1  0
  7  8  1  0
  8  9  1  0
  8 10  1  0
 10 11  1  0
 11 12  1  0
 12 13  1  0
  8 14  1  0
 14 15  1  0
 15 16  1  0
 16 17  1  0
 17 18  1  0
 18 19  1  0
  1 20  1  0
  1 21  1  0
  1 22  1  0
  2 23  1  0
  2 24  1  0
  3 25  1  0
  3 26  1  0
  4 27  1  0
  4 28  1  0
  5 29  1  0
  5 30  1  0
  6 31  1  0
  6 32  1  0
  7 33  1  0
  7 34  1  0
  9 35  1  0
  9 36  1  0
  9 37  1  0
 10 38  1  0
 10 39  1  0
 11 40  1  0
 11 41  1  0
 12 42  1  0
 12 43  1  0
 13 44  1  0
 13 45  1  0
 13 46  1  0
 14 47  1  0
 14 48  1  0
 15 49  1  0
 15 50  1  0
 16 51  1  0
 16 52  1  0
 17 53  1  0
 17 54  1  0
 18 55  1  0
 18 56  1  0
 19 57  1  0
 19 58  1  0
 19 59  1  0
M  CHG  1   8   1
M  END
