234_CCCCCC[N+](C)(CCCCC)CCCCCC
     RDKit          3D

 59 58  0  0  0  0  0  0  0  0999 V2000
   -3.0357    5.8138   -0.1808 C   0  0  0  0  0  0  0  0  0  0  0  0
   -2.6310    4.4268    0.3105 C   0  0  0  0  0  0  0  0  0  0  0  0
   -3.3607    3.3276   -0.4757 C   0  0  0  0  0  0  0  0  0  0  0  0
   -3.0915    1.9207    0.0824 C   0  0  0  0  0  0  0  0  0  0  0  0
   -1.6624    1.4314   -0.2039 C   0  0  0  0  0  0  0  0  0  0  0  0
   -1.4656   -0.0222    0.2945 C   0  0  0  0  0  0  0  0  0  0  0  0
   -0.1861   -0.6854   -0.1305 N   0  0  0  0  0  0  0  0  0  0  0  0
   -0.1770   -0.8729   -1.6107 C   0  0  0  0  0  0  0  0  0  0  0  0
   -0.0444   -2.0120    0.5732 C   0  0  0  0  0  0  0  0  0  0  0  0
   -1.2914   -2.9342    0.6658 C   0  0  0  0  0  0  0  0  0  0  0  0
   -1.7653   -3.5142   -0.6787 C   0  0  0  0  0  0  0  0  0  0  0  0
   -2.5916   -4.7990   -0.5091 C   0  0  0  0  0  0  0  0  0  0  0  0
   -3.9279   -4.5501    0.1901 C   0  0  0  0  0  0  0  0  0  0  0  0
    0.9738    0.1886    0.2632 C   0  0  0  0  0  0  0  0  0  0  0  0
    2.3753   -0.4319    0.0353 C   0  0  0  0  0  0  0  0  0  0  0  0
    3.4800    0.6013    0.2946 C   0  0  0  0  0  0  0  0  0  0  0  0
    4.8703   -0.0150    0.0977 C   0  0  0  0  0  0  0  0  0  0  0  0
    5.9718    1.0198    0.3542 C   0  0  0  0  0  0  0  0  0  0  0  0
    7.3570    0.4102    0.1596 C   0  0  0  0  0  0  0  0  0  0  0  0
   -2.7865    5.9294   -1.2572 H   0  0  0  0  0  0  0  0  0  0  0  0
   -2.4865    6.5875    0.3961 H   0  0  0  0  0  0  0  0  0  0  0  0
   -4.1258    5.9719   -0.0372 H   0  0  0  0  0  0  0  0  0  0  0  0
   -2.8762    4.3441    1.3916 H   0  0  0  0  0  0  0  0  0  0  0  0
   -1.5327    4.3202    0.1873 H   0  0  0  0  0  0  0  0  0  0  0  0
   -3.0680    3.3706   -1.5478 H   0  0  0  0  0  0  0  0  0  0  0  0
   -4.4558    3.5137   -0.4186 H   0  0  0  0  0  0  0  0  0  0  0  0
   -3.2851    1.9057    1.1775 H   0  0  0  0  0  0  0  0  0  0  0  0
   -3.8133    1.2228   -0.3960 H   0  0  0  0  0  0  0  0  0  0  0  0
   -1.4756    1.4953   -1.2959 H   0  0  0  0  0  0  0  0  0  0  0  0
   -0.9547    2.0998    0.3268 H   0  0  0  0  0  0  0  0  0  0  0  0
   -1.5354   -0.0112    1.4068 H   0  0  0  0  0  0  0  0  0  0  0  0
   -2.3358   -0.6060   -0.0766 H   0  0  0  0  0  0  0  0  0  0  0  0
    0.1450    0.0489   -2.1427 H   0  0  0  0  0  0  0  0  0  0  0  0
   -1.1809   -1.1158   -2.0108 H   0  0  0  0  0  0  0  0  0  0  0  0
    0.5163   -1.6825   -1.9252 H   0  0  0  0  0  0  0  0  0  0  0  0
    0.2664   -1.8349    1.6290 H   0  0  0  0  0  0  0  0  0  0  0  0
    0.7736   -2.6154    0.1201 H   0  0  0  0  0  0  0  0  0  0  0  0
   -2.1289   -2.4342    1.1940 H   0  0  0  0  0  0  0  0  0  0  0  0
   -0.9974   -3.7834    1.3218 H   0  0  0  0  0  0  0  0  0  0  0  0
   -0.8841   -3.7572   -1.3109 H   0  0  0  0  0  0  0  0  0  0  0  0
   -2.3890   -2.7707   -1.2142 H   0  0  0  0  0  0  0  0  0  0  0  0
   -2.7972   -5.2210   -1.5167 H   0  0  0  0  0  0  0  0  0  0  0  0
   -2.0096   -5.5573    0.0584 H   0  0  0  0  0  0  0  0  0  0  0  0
   -3.7664   -4.2305    1.2407 H   0  0  0  0  0  0  0  0  0  0  0  0
   -4.5202   -5.4892    0.1997 H   0  0  0  0  0  0  0  0  0  0  0  0
   -4.5084   -3.7709   -0.3481 H   0  0  0  0  0  0  0  0  0  0  0  0
    0.9534    1.1410   -0.3110 H   0  0  0  0  0  0  0  0  0  0  0  0
    0.8930    0.4669    1.3395 H   0  0  0  0  0  0  0  0  0  0  0  0
    2.4707   -0.7981   -1.0081 H   0  0  0  0  0  0  0  0  0  0  0  0
    2.5323   -1.2837    0.7305 H   0  0  0  0  0  0  0  0  0  0  0  0
    3.3903    0.9818    1.3361 H   0  0  0  0  0  0  0  0  0  0  0  0
    3.3566    1.4566   -0.4059 H   0  0  0  0  0  0  0  0  0  0  0  0
    4.9595   -0.3968   -0.9434 H   0  0  0  0  0  0  0  0  0  0  0  0
    4.9975   -0.8687    0.7995 H   0  0  0  0  0  0  0  0  0  0  0  0
    5.8537    1.8748   -0.3468 H   0  0  0  0  0  0  0  0  0  0  0  0
    5.8909    1.4035    1.3946 H   0  0  0  0  0  0  0  0  0  0  0  0
    7.4733    0.0410   -0.8817 H   0  0  0  0  0  0  0  0  0  0  0  0
    7.5108   -0.4322    0.8672 H   0  0  0  0  0  0  0  0  0  0  0  0
    8.1327    1.1812    0.3516 H   0  0  0  0  0  0  0  0  0  0  0  0
  1  2  1  0
  2  3  1  0
  3  4  1  0
  4  5  1  0
  5  6  1  0
  6  7  1  0
  7  8  1  0
  7  9  1  0
  9 10  1  0
 10 11  1  0
 11 12  1  0
 12 13  1  0
  7 14  1  0
 14 15  1  0
 15 16  1  0
 16 17  1  0
 17 18  1  0
 18 19  1  0
  1 20  1  0
  1 21  1  0
  1 22  1  0
  2 23  1  0
  2 24  1  0
  3 25  1  0
  3 26  1  0
  4 27  1  0
  4 28  1  0
  5 29  1  0
  5 30  1  0
  6 31  1  0
  6 32  1  0
  8 33  1  0
  8 34  1  0
  8 35  1  0
  9 36  1  0
  9 37  1  0
 10 38  1  0
 10 39  1  0
 11 40  1  0
 11 41  1  0
 12 42  1  0
 12 43  1  0
 13 44  1  0
 13 45  1  0
 13 46  1  0
 14 47  1  0
 14 48  1  0
 15 49  1  0
 15 50  1  0
 16 51  1  0
 16 52  1  0
 17 53  1  0
 17 54  1  0
 18 55  1  0
 18 56  1  0
 19 57  1  0
 19 58  1  0
 19 59  1  0
M  CHG  1   7   1
M  END
