237_CCCCCC[N+](CCC)(CCC)CCCCCC
     RDKit          3D

 59 58  0  0  0  0  0  0  0  0999 V2000
   -5.0148    3.3783    1.3052 C   0  0  0  0  0  0  0  0  0  0  0  0
   -4.7357    2.1409    2.1617 C   0  0  0  0  0  0  0  0  0  0  0  0
   -3.3081    1.6005    1.9744 C   0  0  0  0  0  0  0  0  0  0  0  0
   -3.1029    0.9394    0.6024 C   0  0  0  0  0  0  0  0  0  0  0  0
   -1.6871    0.3575    0.4839 C   0  0  0  0  0  0  0  0  0  0  0  0
   -1.4655   -0.2746   -0.9086 C   0  0  0  0  0  0  0  0  0  0  0  0
   -0.1150   -0.9042   -1.1315 N   0  0  0  0  0  0  0  0  0  0  0  0
   -0.1358   -1.4227   -2.5470 C   0  0  0  0  0  0  0  0  0  0  0  0
    1.1354   -2.1966   -3.0173 C   0  0  0  0  0  0  0  0  0  0  0  0
    0.9028   -3.6993   -3.1732 C   0  0  0  0  0  0  0  0  0  0  0  0
    0.1212   -2.0381   -0.1641 C   0  0  0  0  0  0  0  0  0  0  0  0
   -0.9811   -3.1272   -0.1164 C   0  0  0  0  0  0  0  0  0  0  0  0
   -0.5456   -4.3060    0.7544 C   0  0  0  0  0  0  0  0  0  0  0  0
    0.9496    0.1772   -1.0516 C   0  0  0  0  0  0  0  0  0  0  0  0
    1.7464    0.2828    0.2746 C   0  0  0  0  0  0  0  0  0  0  0  0
    2.6840    1.4983    0.2593 C   0  0  0  0  0  0  0  0  0  0  0  0
    3.5352    1.5542    1.5368 C   0  0  0  0  0  0  0  0  0  0  0  0
    4.3323    2.8608    1.6660 C   0  0  0  0  0  0  0  0  0  0  0  0
    5.3814    3.0311    0.5651 C   0  0  0  0  0  0  0  0  0  0  0  0
   -5.9981    3.8103    1.5952 H   0  0  0  0  0  0  0  0  0  0  0  0
   -4.2266    4.1482    1.4619 H   0  0  0  0  0  0  0  0  0  0  0  0
   -5.0623    3.1110    0.2281 H   0  0  0  0  0  0  0  0  0  0  0  0
   -4.8643    2.4197    3.2309 H   0  0  0  0  0  0  0  0  0  0  0  0
   -5.4832    1.3495    1.9290 H   0  0  0  0  0  0  0  0  0  0  0  0
   -2.5728    2.4259    2.1122 H   0  0  0  0  0  0  0  0  0  0  0  0
   -3.1195    0.8441    2.7695 H   0  0  0  0  0  0  0  0  0  0  0  0
   -3.2531    1.6924   -0.2038 H   0  0  0  0  0  0  0  0  0  0  0  0
   -3.8505    0.1249    0.4701 H   0  0  0  0  0  0  0  0  0  0  0  0
   -0.9676    1.1821    0.6447 H   0  0  0  0  0  0  0  0  0  0  0  0
   -1.5582   -0.4008    1.2806 H   0  0  0  0  0  0  0  0  0  0  0  0
   -2.2801   -1.0095   -1.0915 H   0  0  0  0  0  0  0  0  0  0  0  0
   -1.6409    0.5251   -1.6665 H   0  0  0  0  0  0  0  0  0  0  0  0
   -1.0399   -2.0409   -2.7409 H   0  0  0  0  0  0  0  0  0  0  0  0
   -0.2612   -0.5616   -3.2455 H   0  0  0  0  0  0  0  0  0  0  0  0
    1.4357   -1.8047   -4.0127 H   0  0  0  0  0  0  0  0  0  0  0  0
    2.0082   -2.0448   -2.3506 H   0  0  0  0  0  0  0  0  0  0  0  0
    0.0137   -3.8994   -3.8101 H   0  0  0  0  0  0  0  0  0  0  0  0
    1.7906   -4.1621   -3.6571 H   0  0  0  0  0  0  0  0  0  0  0  0
    0.7668   -4.1787   -2.1832 H   0  0  0  0  0  0  0  0  0  0  0  0
    0.2086   -1.6647    0.8741 H   0  0  0  0  0  0  0  0  0  0  0  0
    1.0961   -2.5246   -0.3690 H   0  0  0  0  0  0  0  0  0  0  0  0
   -1.9121   -2.7136    0.3263 H   0  0  0  0  0  0  0  0  0  0  0  0
   -1.2187   -3.5203   -1.1232 H   0  0  0  0  0  0  0  0  0  0  0  0
   -0.3008   -3.9618    1.7813 H   0  0  0  0  0  0  0  0  0  0  0  0
   -1.3688   -5.0471    0.8176 H   0  0  0  0  0  0  0  0  0  0  0  0
    0.3434   -4.8032    0.3126 H   0  0  0  0  0  0  0  0  0  0  0  0
    1.7122    0.0720   -1.8532 H   0  0  0  0  0  0  0  0  0  0  0  0
    0.5100    1.1785   -1.2680 H   0  0  0  0  0  0  0  0  0  0  0  0
    2.3633   -0.6300    0.4086 H   0  0  0  0  0  0  0  0  0  0  0  0
    1.0648    0.3820    1.1404 H   0  0  0  0  0  0  0  0  0  0  0  0
    2.0793    2.4288    0.1716 H   0  0  0  0  0  0  0  0  0  0  0  0
    3.3544    1.4242   -0.6251 H   0  0  0  0  0  0  0  0  0  0  0  0
    2.8673    1.4751    2.4232 H   0  0  0  0  0  0  0  0  0  0  0  0
    4.2337    0.6888    1.5609 H   0  0  0  0  0  0  0  0  0  0  0  0
    3.6394    3.7313    1.6582 H   0  0  0  0  0  0  0  0  0  0  0  0
    4.8545    2.8529    2.6490 H   0  0  0  0  0  0  0  0  0  0  0  0
    4.8923    3.2106   -0.4156 H   0  0  0  0  0  0  0  0  0  0  0  0
    6.0271    2.1297    0.5007 H   0  0  0  0  0  0  0  0  0  0  0  0
    6.0210    3.9084    0.7951 H   0  0  0  0  0  0  0  0  0  0  0  0
  1  2  1  0
  2  3  1  0
  3  4  1  0
  4  5  1  0
  5  6  1  0
  6  7  1  0
  7  8  1  0
  8  9  1  0
  9 10  1  0
  7 11  1  0
 11 12  1  0
 12 13  1  0
  7 14  1  0
 14 15  1  0
 15 16  1  0
 16 17  1  0
 17 18  1  0
 18 19  1  0
  1 20  1  0
  1 21  1  0
  1 22  1  0
  2 23  1  0
  2 24  1  0
  3 25  1  0
  3 26  1  0
  4 27  1  0
  4 28  1  0
  5 29  1  0
  5 30  1  0
  6 31  1  0
  6 32  1  0
  8 33  1  0
  8 34  1  0
  9 35  1  0
  9 36  1  0
 10 37  1  0
 10 38  1  0
 10 39  1  0
 11 40  1  0
 11 41  1  0
 12 42  1  0
 12 43  1  0
 13 44  1  0
 13 45  1  0
 13 46  1  0
 14 47  1  0
 14 48  1  0
 15 49  1  0
 15 50  1  0
 16 51  1  0
 16 52  1  0
 17 53  1  0
 17 54  1  0
 18 55  1  0
 18 56  1  0
 19 57  1  0
 19 58  1  0
 19 59  1  0
M  CHG  1   7   1
M  END
