240_CCCCC[N+](CCC)(CCCCC)CCCCC
     RDKit          3D

 59 58  0  0  0  0  0  0  0  0999 V2000
   -3.5910   -4.1313    2.2731 C   0  0  0  0  0  0  0  0  0  0  0  0
   -2.5567   -3.0868    1.8819 C   0  0  0  0  0  0  0  0  0  0  0  0
   -2.0365   -3.3220    0.4630 C   0  0  0  0  0  0  0  0  0  0  0  0
   -0.9058   -2.3648    0.0580 C   0  0  0  0  0  0  0  0  0  0  0  0
   -1.3647   -0.9077    0.0113 C   0  0  0  0  0  0  0  0  0  0  0  0
   -0.3535    0.0974   -0.6262 N   0  0  0  0  0  0  0  0  0  0  0  0
   -0.0717   -0.3321   -2.0967 C   0  0  0  0  0  0  0  0  0  0  0  0
    0.6941    0.7117   -2.9145 C   0  0  0  0  0  0  0  0  0  0  0  0
    1.1709    0.1201   -4.2340 C   0  0  0  0  0  0  0  0  0  0  0  0
    0.9307    0.2363    0.2347 C   0  0  0  0  0  0  0  0  0  0  0  0
    2.0517   -0.7574   -0.0827 C   0  0  0  0  0  0  0  0  0  0  0  0
    3.1849   -0.6309    0.9418 C   0  0  0  0  0  0  0  0  0  0  0  0
    4.3262   -1.5997    0.6321 C   0  0  0  0  0  0  0  0  0  0  0  0
    5.4513   -1.4772    1.6472 C   0  0  0  0  0  0  0  0  0  0  0  0
   -1.0664    1.5028   -0.6773 C   0  0  0  0  0  0  0  0  0  0  0  0
   -1.5615    2.0086    0.6827 C   0  0  0  0  0  0  0  0  0  0  0  0
   -2.1413    3.4276    0.6067 C   0  0  0  0  0  0  0  0  0  0  0  0
   -1.0858    4.5034    0.3455 C   0  0  0  0  0  0  0  0  0  0  0  0
   -1.6917    5.8978    0.3988 C   0  0  0  0  0  0  0  0  0  0  0  0
   -4.4502   -4.1053    1.5952 H   0  0  0  0  0  0  0  0  0  0  0  0
   -3.9534   -3.9437    3.2887 H   0  0  0  0  0  0  0  0  0  0  0  0
   -3.1619   -5.1380    2.2465 H   0  0  0  0  0  0  0  0  0  0  0  0
   -1.7247   -3.1203    2.5946 H   0  0  0  0  0  0  0  0  0  0  0  0
   -3.0148   -2.0950    1.9602 H   0  0  0  0  0  0  0  0  0  0  0  0
   -2.8628   -3.2371   -0.2534 H   0  0  0  0  0  0  0  0  0  0  0  0
   -1.6574   -4.3489    0.3862 H   0  0  0  0  0  0  0  0  0  0  0  0
   -0.0920   -2.4785    0.7806 H   0  0  0  0  0  0  0  0  0  0  0  0
   -0.5377   -2.6982   -0.9156 H   0  0  0  0  0  0  0  0  0  0  0  0
   -2.2937   -0.8144   -0.5634 H   0  0  0  0  0  0  0  0  0  0  0  0
   -1.5441   -0.5662    1.0340 H   0  0  0  0  0  0  0  0  0  0  0  0
   -1.0471   -0.5254   -2.5597 H   0  0  0  0  0  0  0  0  0  0  0  0
    0.4801   -1.2746   -2.0682 H   0  0  0  0  0  0  0  0  0  0  0  0
    0.0463    1.5643   -3.1459 H   0  0  0  0  0  0  0  0  0  0  0  0
    1.5594    1.0984   -2.3681 H   0  0  0  0  0  0  0  0  0  0  0  0
    1.6942    0.8800   -4.8228 H   0  0  0  0  0  0  0  0  0  0  0  0
    1.8616   -0.7119   -4.0635 H   0  0  0  0  0  0  0  0  0  0  0  0
    0.3271   -0.2480   -4.8264 H   0  0  0  0  0  0  0  0  0  0  0  0
    0.6194    0.1483    1.2815 H   0  0  0  0  0  0  0  0  0  0  0  0
    1.3101    1.2533    0.0802 H   0  0  0  0  0  0  0  0  0  0  0  0
    2.4665   -0.5605   -1.0767 H   0  0  0  0  0  0  0  0  0  0  0  0
    1.6959   -1.7888   -0.0870 H   0  0  0  0  0  0  0  0  0  0  0  0
    3.5661    0.3976    0.9431 H   0  0  0  0  0  0  0  0  0  0  0  0
    2.7950   -0.8336    1.9469 H   0  0  0  0  0  0  0  0  0  0  0  0
    3.9511   -2.6297    0.6335 H   0  0  0  0  0  0  0  0  0  0  0  0
    4.7227   -1.4000   -0.3701 H   0  0  0  0  0  0  0  0  0  0  0  0
    5.8705   -0.4660    1.6481 H   0  0  0  0  0  0  0  0  0  0  0  0
    5.0947   -1.7027    2.6573 H   0  0  0  0  0  0  0  0  0  0  0  0
    6.2566   -2.1785    1.4068 H   0  0  0  0  0  0  0  0  0  0  0  0
   -1.9032    1.4046   -1.3787 H   0  0  0  0  0  0  0  0  0  0  0  0
   -0.3361    2.2026   -1.0902 H   0  0  0  0  0  0  0  0  0  0  0  0
   -0.7614    1.9903    1.4296 H   0  0  0  0  0  0  0  0  0  0  0  0
   -2.3650    1.3620    1.0507 H   0  0  0  0  0  0  0  0  0  0  0  0
   -2.9164    3.4691   -0.1683 H   0  0  0  0  0  0  0  0  0  0  0  0
   -2.6380    3.6431    1.5612 H   0  0  0  0  0  0  0  0  0  0  0  0
   -0.6273    4.3602   -0.6383 H   0  0  0  0  0  0  0  0  0  0  0  0
   -0.2866    4.4306    1.0920 H   0  0  0  0  0  0  0  0  0  0  0  0
   -2.4771    6.0130   -0.3551 H   0  0  0  0  0  0  0  0  0  0  0  0
   -0.9227    6.6525    0.2066 H   0  0  0  0  0  0  0  0  0  0  0  0
   -2.1268    6.0997    1.3828 H   0  0  0  0  0  0  0  0  0  0  0  0
  1  2  1  0
  2  3  1  0
  3  4  1  0
  4  5  1  0
  5  6  1  0
  6  7  1  0
  7  8  1  0
  8  9  1  0
  6 10  1  0
 10 11  1  0
 11 12  1  0
 12 13  1  0
 13 14  1  0
  6 15  1  0
 15 16  1  0
 16 17  1  0
 17 18  1  0
 18 19  1  0
  1 20  1  0
  1 21  1  0
  1 22  1  0
  2 23  1  0
  2 24  1  0
  3 25  1  0
  3 26  1  0
  4 27  1  0
  4 28  1  0
  5 29  1  0
  5 30  1  0
  7 31  1  0
  7 32  1  0
  8 33  1  0
  8 34  1  0
  9 35  1  0
  9 36  1  0
  9 37  1  0
 10 38  1  0
 10 39  1  0
 11 40  1  0
 11 41  1  0
 12 42  1  0
 12 43  1  0
 13 44  1  0
 13 45  1  0
 14 46  1  0
 14 47  1  0
 14 48  1  0
 15 49  1  0
 15 50  1  0
 16 51  1  0
 16 52  1  0
 17 53  1  0
 17 54  1  0
 18 55  1  0
 18 56  1  0
 19 57  1  0
 19 58  1  0
 19 59  1  0
M  CHG  1   6   1
M  END
