243_CCCCCCCCCCCCCCC[N+](C)(C)CC
     RDKit          3D

 62 61  0  0  0  0  0  0  0  0999 V2000
    8.2934   -0.5091   -0.5694 C   0  0  0  0  0  0  0  0  0  0  0  0
    7.1115   -1.3872   -0.1608 C   0  0  0  0  0  0  0  0  0  0  0  0
    5.7809   -0.9303   -0.7841 C   0  0  0  0  0  0  0  0  0  0  0  0
    5.3241    0.4833   -0.3714 C   0  0  0  0  0  0  0  0  0  0  0  0
    5.1477    0.6948    1.1453 C   0  0  0  0  0  0  0  0  0  0  0  0
    4.1697   -0.2802    1.8315 C   0  0  0  0  0  0  0  0  0  0  0  0
    2.7458   -0.2862    1.2472 C   0  0  0  0  0  0  0  0  0  0  0  0
    2.0469    1.0789    1.3691 C   0  0  0  0  0  0  0  0  0  0  0  0
    0.5497    1.0074    1.0308 C   0  0  0  0  0  0  0  0  0  0  0  0
    0.2939    0.7560   -0.4629 C   0  0  0  0  0  0  0  0  0  0  0  0
   -1.2047    0.8201   -0.7797 C   0  0  0  0  0  0  0  0  0  0  0  0
   -1.4677    0.5361   -2.2648 C   0  0  0  0  0  0  0  0  0  0  0  0
   -2.9407    0.7358   -2.6627 C   0  0  0  0  0  0  0  0  0  0  0  0
   -3.9021   -0.2752   -2.0006 C   0  0  0  0  0  0  0  0  0  0  0  0
   -4.6688    0.3480   -0.8056 C   0  0  0  0  0  0  0  0  0  0  0  0
   -5.4193   -0.6266    0.0507 N   0  0  0  0  0  0  0  0  0  0  0  0
   -6.2882   -1.4954   -0.7858 C   0  0  0  0  0  0  0  0  0  0  0  0
   -4.4832   -1.4907    0.8172 C   0  0  0  0  0  0  0  0  0  0  0  0
   -6.3211    0.1123    0.9930 C   0  0  0  0  0  0  0  0  0  0  0  0
   -5.6153    1.0811    1.9592 C   0  0  0  0  0  0  0  0  0  0  0  0
    9.2373   -0.9700   -0.2093 H   0  0  0  0  0  0  0  0  0  0  0  0
    8.3446   -0.4153   -1.6750 H   0  0  0  0  0  0  0  0  0  0  0  0
    8.2076    0.4995   -0.1146 H   0  0  0  0  0  0  0  0  0  0  0  0
    7.0349   -1.4222    0.9460 H   0  0  0  0  0  0  0  0  0  0  0  0
    7.3150   -2.4245   -0.5045 H   0  0  0  0  0  0  0  0  0  0  0  0
    5.8775   -0.9570   -1.8914 H   0  0  0  0  0  0  0  0  0  0  0  0
    4.9915   -1.6661   -0.5224 H   0  0  0  0  0  0  0  0  0  0  0  0
    6.0545    1.2293   -0.7497 H   0  0  0  0  0  0  0  0  0  0  0  0
    4.3676    0.7118   -0.8874 H   0  0  0  0  0  0  0  0  0  0  0  0
    6.1365    0.6151    1.6442 H   0  0  0  0  0  0  0  0  0  0  0  0
    4.8074    1.7375    1.3194 H   0  0  0  0  0  0  0  0  0  0  0  0
    4.1127   -0.0170    2.9102 H   0  0  0  0  0  0  0  0  0  0  0  0
    4.5811   -1.3106    1.7836 H   0  0  0  0  0  0  0  0  0  0  0  0
    2.1558   -1.0453    1.8057 H   0  0  0  0  0  0  0  0  0  0  0  0
    2.7768   -0.6120    0.1876 H   0  0  0  0  0  0  0  0  0  0  0  0
    2.5366    1.8215    0.7033 H   0  0  0  0  0  0  0  0  0  0  0  0
    2.1458    1.4431    2.4151 H   0  0  0  0  0  0  0  0  0  0  0  0
    0.0875    1.9780    1.3160 H   0  0  0  0  0  0  0  0  0  0  0  0
    0.0633    0.2126    1.6379 H   0  0  0  0  0  0  0  0  0  0  0  0
    0.6768   -0.2482   -0.7441 H   0  0  0  0  0  0  0  0  0  0  0  0
    0.8299    1.5227   -1.0646 H   0  0  0  0  0  0  0  0  0  0  0  0
   -1.5918    1.8304   -0.5219 H   0  0  0  0  0  0  0  0  0  0  0  0
   -1.7312    0.0627   -0.1606 H   0  0  0  0  0  0  0  0  0  0  0  0
   -0.8508    1.2276   -2.8799 H   0  0  0  0  0  0  0  0  0  0  0  0
   -1.1529   -0.5020   -2.5102 H   0  0  0  0  0  0  0  0  0  0  0  0
   -3.0033    0.6045   -3.7654 H   0  0  0  0  0  0  0  0  0  0  0  0
   -3.2512    1.7836   -2.4548 H   0  0  0  0  0  0  0  0  0  0  0  0
   -4.6428   -0.5881   -2.7681 H   0  0  0  0  0  0  0  0  0  0  0  0
   -3.3433   -1.1832   -1.6970 H   0  0  0  0  0  0  0  0  0  0  0  0
   -3.9397    0.9095   -0.1858 H   0  0  0  0  0  0  0  0  0  0  0  0
   -5.3710    1.1064   -1.2219 H   0  0  0  0  0  0  0  0  0  0  0  0
   -6.9471   -0.8853   -1.4436 H   0  0  0  0  0  0  0  0  0  0  0  0
   -6.9365   -2.1440   -0.1543 H   0  0  0  0  0  0  0  0  0  0  0  0
   -5.6945   -2.1800   -1.4298 H   0  0  0  0  0  0  0  0  0  0  0  0
   -3.6786   -0.8961    1.3004 H   0  0  0  0  0  0  0  0  0  0  0  0
   -3.9857   -2.2413    0.1668 H   0  0  0  0  0  0  0  0  0  0  0  0
   -5.0196   -2.0597    1.6091 H   0  0  0  0  0  0  0  0  0  0  0  0
   -7.0734    0.7025    0.4206 H   0  0  0  0  0  0  0  0  0  0  0  0
   -6.9016   -0.6067    1.6161 H   0  0  0  0  0  0  0  0  0  0  0  0
   -6.3719    1.5165    2.6456 H   0  0  0  0  0  0  0  0  0  0  0  0
   -5.1440    1.9252    1.4163 H   0  0  0  0  0  0  0  0  0  0  0  0
   -4.8620    0.5616    2.5843 H   0  0  0  0  0  0  0  0  0  0  0  0
  1  2  1  0
  2  3  1  0
  3  4  1  0
  4  5  1  0
  5  6  1  0
  6  7  1  0
  7  8  1  0
  8  9  1  0
  9 10  1  0
 10 11  1  0
 11 12  1  0
 12 13  1  0
 13 14  1  0
 14 15  1  0
 15 16  1  0
 16 17  1  0
 16 18  1  0
 16 19  1  0
 19 20  1  0
  1 21  1  0
  1 22  1  0
  1 23  1  0
  2 24  1  0
  2 25  1  0
  3 26  1  0
  3 27  1  0
  4 28  1  0
  4 29  1  0
  5 30  1  0
  5 31  1  0
  6 32  1  0
  6 33  1  0
  7 34  1  0
  7 35  1  0
  8 36  1  0
  8 37  1  0
  9 38  1  0
  9 39  1  0
 10 40  1  0
 10 41  1  0
 11 42  1  0
 11 43  1  0
 12 44  1  0
 12 45  1  0
 13 46  1  0
 13 47  1  0
 14 48  1  0
 14 49  1  0
 15 50  1  0
 15 51  1  0
 17 52  1  0
 17 53  1  0
 17 54  1  0
 18 55  1  0
 18 56  1  0
 18 57  1  0
 19 58  1  0
 19 59  1  0
 20 60  1  0
 20 61  1  0
 20 62  1  0
M  CHG  1  16   1
M  END
