244_CCCCCCCCCCCCCC[N+](C)(C)CCC
     RDKit          3D

 62 61  0  0  0  0  0  0  0  0999 V2000
    9.5066    0.1077    1.9435 C   0  0  0  0  0  0  0  0  0  0  0  0
    8.0752    0.3104    1.4551 C   0  0  0  0  0  0  0  0  0  0  0  0
    7.6270   -0.8531    0.5587 C   0  0  0  0  0  0  0  0  0  0  0  0
    6.1484   -0.7498    0.1527 C   0  0  0  0  0  0  0  0  0  0  0  0
    5.8835    0.4084   -0.8253 C   0  0  0  0  0  0  0  0  0  0  0  0
    4.4713    0.3573   -1.4296 C   0  0  0  0  0  0  0  0  0  0  0  0
    3.3737    0.6325   -0.3863 C   0  0  0  0  0  0  0  0  0  0  0  0
    1.9923    0.8543   -1.0231 C   0  0  0  0  0  0  0  0  0  0  0  0
    1.3907   -0.4419   -1.5931 C   0  0  0  0  0  0  0  0  0  0  0  0
    0.0108   -0.2206   -2.2337 C   0  0  0  0  0  0  0  0  0  0  0  0
   -1.0957    0.0205   -1.1952 C   0  0  0  0  0  0  0  0  0  0  0  0
   -2.4746    0.0867   -1.8708 C   0  0  0  0  0  0  0  0  0  0  0  0
   -3.5999    0.4730   -0.8948 C   0  0  0  0  0  0  0  0  0  0  0  0
   -3.9971   -0.6989    0.0400 C   0  0  0  0  0  0  0  0  0  0  0  0
   -5.0707   -0.3881    1.0405 N   0  0  0  0  0  0  0  0  0  0  0  0
   -4.6082    0.6772    1.9686 C   0  0  0  0  0  0  0  0  0  0  0  0
   -5.2993   -1.6302    1.8257 C   0  0  0  0  0  0  0  0  0  0  0  0
   -6.3270    0.0260    0.3348 C   0  0  0  0  0  0  0  0  0  0  0  0
   -7.5835    0.1327    1.2318 C   0  0  0  0  0  0  0  0  0  0  0  0
   -8.7626    0.7131    0.4541 C   0  0  0  0  0  0  0  0  0  0  0  0
    9.5815   -0.8230    2.5453 H   0  0  0  0  0  0  0  0  0  0  0  0
   10.2031    0.0439    1.0804 H   0  0  0  0  0  0  0  0  0  0  0  0
    9.8075    0.9664    2.5800 H   0  0  0  0  0  0  0  0  0  0  0  0
    7.4030    0.3878    2.3372 H   0  0  0  0  0  0  0  0  0  0  0  0
    8.0298    1.2656    0.8906 H   0  0  0  0  0  0  0  0  0  0  0  0
    7.7639   -1.8074    1.1133 H   0  0  0  0  0  0  0  0  0  0  0  0
    8.2655   -0.8984   -0.3508 H   0  0  0  0  0  0  0  0  0  0  0  0
    5.8596   -1.7074   -0.3333 H   0  0  0  0  0  0  0  0  0  0  0  0
    5.5249   -0.6316    1.0648 H   0  0  0  0  0  0  0  0  0  0  0  0
    6.0278    1.3838   -0.3136 H   0  0  0  0  0  0  0  0  0  0  0  0
    6.6153    0.3528   -1.6607 H   0  0  0  0  0  0  0  0  0  0  0  0
    4.3126   -0.6348   -1.9032 H   0  0  0  0  0  0  0  0  0  0  0  0
    4.4141    1.1275   -2.2295 H   0  0  0  0  0  0  0  0  0  0  0  0
    3.6386    1.5508    0.1822 H   0  0  0  0  0  0  0  0  0  0  0  0
    3.3137   -0.2080    0.3382 H   0  0  0  0  0  0  0  0  0  0  0  0
    1.3220    1.2519   -0.2325 H   0  0  0  0  0  0  0  0  0  0  0  0
    2.0648    1.6245   -1.8220 H   0  0  0  0  0  0  0  0  0  0  0  0
    2.0634   -0.8393   -2.3819 H   0  0  0  0  0  0  0  0  0  0  0  0
    1.3166   -1.2117   -0.7940 H   0  0  0  0  0  0  0  0  0  0  0  0
    0.0581    0.6342   -2.9439 H   0  0  0  0  0  0  0  0  0  0  0  0
   -0.2437   -1.1308   -2.8204 H   0  0  0  0  0  0  0  0  0  0  0  0
   -0.9079    0.9781   -0.6654 H   0  0  0  0  0  0  0  0  0  0  0  0
   -1.0792   -0.8058   -0.4541 H   0  0  0  0  0  0  0  0  0  0  0  0
   -2.4386    0.8565   -2.6732 H   0  0  0  0  0  0  0  0  0  0  0  0
   -2.7092   -0.8877   -2.3530 H   0  0  0  0  0  0  0  0  0  0  0  0
   -3.2813    1.3619   -0.3127 H   0  0  0  0  0  0  0  0  0  0  0  0
   -4.4718    0.7639   -1.5157 H   0  0  0  0  0  0  0  0  0  0  0  0
   -4.3167   -1.5515   -0.6031 H   0  0  0  0  0  0  0  0  0  0  0  0
   -3.0821   -1.0413    0.5718 H   0  0  0  0  0  0  0  0  0  0  0  0
   -4.6192    1.6769    1.4840 H   0  0  0  0  0  0  0  0  0  0  0  0
   -3.5750    0.4749    2.3295 H   0  0  0  0  0  0  0  0  0  0  0  0
   -5.2552    0.7483    2.8694 H   0  0  0  0  0  0  0  0  0  0  0  0
   -4.3471   -2.0200    2.2514 H   0  0  0  0  0  0  0  0  0  0  0  0
   -5.9754   -1.4575    2.6910 H   0  0  0  0  0  0  0  0  0  0  0  0
   -5.7443   -2.4281    1.1897 H   0  0  0  0  0  0  0  0  0  0  0  0
   -6.5567   -0.6931   -0.4848 H   0  0  0  0  0  0  0  0  0  0  0  0
   -6.1844    1.0214   -0.1401 H   0  0  0  0  0  0  0  0  0  0  0  0
   -7.8849   -0.8722    1.5953 H   0  0  0  0  0  0  0  0  0  0  0  0
   -7.3908    0.7884    2.1051 H   0  0  0  0  0  0  0  0  0  0  0  0
   -8.9989    0.0738   -0.4231 H   0  0  0  0  0  0  0  0  0  0  0  0
   -8.5279    1.7415    0.1061 H   0  0  0  0  0  0  0  0  0  0  0  0
   -9.6565    0.7580    1.1115 H   0  0  0  0  0  0  0  0  0  0  0  0
  1  2  1  0
  2  3  1  0
  3  4  1  0
  4  5  1  0
  5  6  1  0
  6  7  1  0
  7  8  1  0
  8  9  1  0
  9 10  1  0
 10 11  1  0
 11 12  1  0
 12 13  1  0
 13 14  1  0
 14 15  1  0
 15 16  1  0
 15 17  1  0
 15 18  1  0
 18 19  1  0
 19 20  1  0
  1 21  1  0
  1 22  1  0
  1 23  1  0
  2 24  1  0
  2 25  1  0
  3 26  1  0
  3 27  1  0
  4 28  1  0
  4 29  1  0
  5 30  1  0
  5 31  1  0
  6 32  1  0
  6 33  1  0
  7 34  1  0
  7 35  1  0
  8 36  1  0
  8 37  1  0
  9 38  1  0
  9 39  1  0
 10 40  1  0
 10 41  1  0
 11 42  1  0
 11 43  1  0
 12 44  1  0
 12 45  1  0
 13 46  1  0
 13 47  1  0
 14 48  1  0
 14 49  1  0
 16 50  1  0
 16 51  1  0
 16 52  1  0
 17 53  1  0
 17 54  1  0
 17 55  1  0
 18 56  1  0
 18 57  1  0
 19 58  1  0
 19 59  1  0
 20 60  1  0
 20 61  1  0
 20 62  1  0
M  CHG  1  15   1
M  END
