248_CCCCCCCCCCCCC[N+](CC)(CC)CC
     RDKit          3D

 62 61  0  0  0  0  0  0  0  0999 V2000
    8.3964    1.9853   -1.9033 C   0  0  0  0  0  0  0  0  0  0  0  0
    7.3410    0.9311   -1.5815 C   0  0  0  0  0  0  0  0  0  0  0  0
    7.6737    0.1972   -0.2741 C   0  0  0  0  0  0  0  0  0  0  0  0
    6.7102   -0.9650    0.0145 C   0  0  0  0  0  0  0  0  0  0  0  0
    5.3085   -0.4854    0.4210 C   0  0  0  0  0  0  0  0  0  0  0  0
    4.4152   -1.6725    0.8126 C   0  0  0  0  0  0  0  0  0  0  0  0
    3.0421   -1.2331    1.3467 C   0  0  0  0  0  0  0  0  0  0  0  0
    2.1200   -0.6966    0.2375 C   0  0  0  0  0  0  0  0  0  0  0  0
    0.7301   -0.3033    0.7651 C   0  0  0  0  0  0  0  0  0  0  0  0
   -0.1788   -1.5231    0.9992 C   0  0  0  0  0  0  0  0  0  0  0  0
   -1.5501   -1.1368    1.5781 C   0  0  0  0  0  0  0  0  0  0  0  0
   -2.4676   -0.4659    0.5432 C   0  0  0  0  0  0  0  0  0  0  0  0
   -3.8640   -0.1656    1.1547 C   0  0  0  0  0  0  0  0  0  0  0  0
   -4.9412    0.2325    0.1766 N   0  0  0  0  0  0  0  0  0  0  0  0
   -4.4368    1.2849   -0.7765 C   0  0  0  0  0  0  0  0  0  0  0  0
   -3.9647    2.6006   -0.1276 C   0  0  0  0  0  0  0  0  0  0  0  0
   -6.0762    0.7571    1.0159 C   0  0  0  0  0  0  0  0  0  0  0  0
   -7.3479    1.1675    0.2566 C   0  0  0  0  0  0  0  0  0  0  0  0
   -5.3904   -1.0240   -0.5411 C   0  0  0  0  0  0  0  0  0  0  0  0
   -5.8886   -0.8608   -1.9910 C   0  0  0  0  0  0  0  0  0  0  0  0
    8.4534    2.7358   -1.0863 H   0  0  0  0  0  0  0  0  0  0  0  0
    8.1263    2.5063   -2.8460 H   0  0  0  0  0  0  0  0  0  0  0  0
    9.3913    1.5088   -2.0343 H   0  0  0  0  0  0  0  0  0  0  0  0
    7.2934    0.2039   -2.4211 H   0  0  0  0  0  0  0  0  0  0  0  0
    6.3566    1.4376   -1.4957 H   0  0  0  0  0  0  0  0  0  0  0  0
    7.6649    0.9144    0.5760 H   0  0  0  0  0  0  0  0  0  0  0  0
    8.7013   -0.2215   -0.3500 H   0  0  0  0  0  0  0  0  0  0  0  0
    7.1397   -1.5653    0.8465 H   0  0  0  0  0  0  0  0  0  0  0  0
    6.6405   -1.6272   -0.8764 H   0  0  0  0  0  0  0  0  0  0  0  0
    5.3933    0.2127    1.2826 H   0  0  0  0  0  0  0  0  0  0  0  0
    4.8474    0.0534   -0.4311 H   0  0  0  0  0  0  0  0  0  0  0  0
    4.9227   -2.2529    1.6143 H   0  0  0  0  0  0  0  0  0  0  0  0
    4.2818   -2.3503   -0.0591 H   0  0  0  0  0  0  0  0  0  0  0  0
    3.1751   -0.4614    2.1363 H   0  0  0  0  0  0  0  0  0  0  0  0
    2.5707   -2.1188    1.8210 H   0  0  0  0  0  0  0  0  0  0  0  0
    2.5786    0.2129   -0.2044 H   0  0  0  0  0  0  0  0  0  0  0  0
    2.0173   -1.4500   -0.5740 H   0  0  0  0  0  0  0  0  0  0  0  0
    0.8341    0.2837    1.7039 H   0  0  0  0  0  0  0  0  0  0  0  0
    0.2604    0.3571    0.0063 H   0  0  0  0  0  0  0  0  0  0  0  0
   -0.3156   -2.0830    0.0481 H   0  0  0  0  0  0  0  0  0  0  0  0
    0.3064   -2.2094    1.7238 H   0  0  0  0  0  0  0  0  0  0  0  0
   -1.4143   -0.4673    2.4557 H   0  0  0  0  0  0  0  0  0  0  0  0
   -2.0406   -2.0676    1.9385 H   0  0  0  0  0  0  0  0  0  0  0  0
   -1.9981    0.4851    0.2236 H   0  0  0  0  0  0  0  0  0  0  0  0
   -2.5428   -1.1223   -0.3463 H   0  0  0  0  0  0  0  0  0  0  0  0
   -4.1981   -1.0638    1.7260 H   0  0  0  0  0  0  0  0  0  0  0  0
   -3.7151    0.6206    1.9293 H   0  0  0  0  0  0  0  0  0  0  0  0
   -5.2154    1.5741   -1.5092 H   0  0  0  0  0  0  0  0  0  0  0  0
   -3.6066    0.8823   -1.3957 H   0  0  0  0  0  0  0  0  0  0  0  0
   -3.2170    2.4390    0.6721 H   0  0  0  0  0  0  0  0  0  0  0  0
   -3.4868    3.2323   -0.9059 H   0  0  0  0  0  0  0  0  0  0  0  0
   -4.8228    3.1760    0.2757 H   0  0  0  0  0  0  0  0  0  0  0  0
   -5.7531    1.6301    1.6234 H   0  0  0  0  0  0  0  0  0  0  0  0
   -6.3837   -0.0087    1.7656 H   0  0  0  0  0  0  0  0  0  0  0  0
   -7.8510    0.2851   -0.1864 H   0  0  0  0  0  0  0  0  0  0  0  0
   -8.0639    1.6143    0.9785 H   0  0  0  0  0  0  0  0  0  0  0  0
   -7.1474    1.9337   -0.5170 H   0  0  0  0  0  0  0  0  0  0  0  0
   -4.5833   -1.7830   -0.5959 H   0  0  0  0  0  0  0  0  0  0  0  0
   -6.1914   -1.5426    0.0332 H   0  0  0  0  0  0  0  0  0  0  0  0
   -6.2986   -1.8305   -2.3447 H   0  0  0  0  0  0  0  0  0  0  0  0
   -5.0491   -0.5923   -2.6659 H   0  0  0  0  0  0  0  0  0  0  0  0
   -6.6915   -0.1054   -2.0829 H   0  0  0  0  0  0  0  0  0  0  0  0
  1  2  1  0
  2  3  1  0
  3  4  1  0
  4  5  1  0
  5  6  1  0
  6  7  1  0
  7  8  1  0
  8  9  1  0
  9 10  1  0
 10 11  1  0
 11 12  1  0
 12 13  1  0
 13 14  1  0
 14 15  1  0
 15 16  1  0
 14 17  1  0
 17 18  1  0
 14 19  1  0
 19 20  1  0
  1 21  1  0
  1 22  1  0
  1 23  1  0
  2 24  1  0
  2 25  1  0
  3 26  1  0
  3 27  1  0
  4 28  1  0
  4 29  1  0
  5 30  1  0
  5 31  1  0
  6 32  1  0
  6 33  1  0
  7 34  1  0
  7 35  1  0
  8 36  1  0
  8 37  1  0
  9 38  1  0
  9 39  1  0
 10 40  1  0
 10 41  1  0
 11 42  1  0
 11 43  1  0
 12 44  1  0
 12 45  1  0
 13 46  1  0
 13 47  1  0
 15 48  1  0
 15 49  1  0
 16 50  1  0
 16 51  1  0
 16 52  1  0
 17 53  1  0
 17 54  1  0
 18 55  1  0
 18 56  1  0
 18 57  1  0
 19 58  1  0
 19 59  1  0
 20 60  1  0
 20 61  1  0
 20 62  1  0
M  CHG  1  14   1
M  END
