249_CCCCCCCCCCCC[N+](C)(C)CCCCC
     RDKit          3D

 62 61  0  0  0  0  0  0  0  0999 V2000
   -9.0421    1.2323    0.0266 C   0  0  0  0  0  0  0  0  0  0  0  0
   -8.3498   -0.1166    0.2209 C   0  0  0  0  0  0  0  0  0  0  0  0
   -7.0127   -0.2150   -0.5301 C   0  0  0  0  0  0  0  0  0  0  0  0
   -5.9158    0.6591    0.1028 C   0  0  0  0  0  0  0  0  0  0  0  0
   -4.5637    0.5190   -0.6163 C   0  0  0  0  0  0  0  0  0  0  0  0
   -3.8119   -0.7612   -0.2124 C   0  0  0  0  0  0  0  0  0  0  0  0
   -2.5166   -0.9731   -1.0173 C   0  0  0  0  0  0  0  0  0  0  0  0
   -1.4491    0.1202   -0.8317 C   0  0  0  0  0  0  0  0  0  0  0  0
   -0.9774    0.2572    0.6266 C   0  0  0  0  0  0  0  0  0  0  0  0
    0.2751    1.1512    0.7507 C   0  0  0  0  0  0  0  0  0  0  0  0
    1.5736    0.3641    1.0040 C   0  0  0  0  0  0  0  0  0  0  0  0
    1.9848   -0.5092   -0.2083 C   0  0  0  0  0  0  0  0  0  0  0  0
    3.2885   -1.2369   -0.0643 N   0  0  0  0  0  0  0  0  0  0  0  0
    3.4713   -2.0403   -1.3023 C   0  0  0  0  0  0  0  0  0  0  0  0
    3.2260   -2.1645    1.0955 C   0  0  0  0  0  0  0  0  0  0  0  0
    4.4103   -0.2542    0.0948 C   0  0  0  0  0  0  0  0  0  0  0  0
    5.8342   -0.8469   -0.0477 C   0  0  0  0  0  0  0  0  0  0  0  0
    6.9329    0.1249    0.4192 C   0  0  0  0  0  0  0  0  0  0  0  0
    7.0658    1.3820   -0.4657 C   0  0  0  0  0  0  0  0  0  0  0  0
    6.4065    2.6107    0.1612 C   0  0  0  0  0  0  0  0  0  0  0  0
  -10.0544    1.1956    0.4814 H   0  0  0  0  0  0  0  0  0  0  0  0
   -9.1497    1.4630   -1.0545 H   0  0  0  0  0  0  0  0  0  0  0  0
   -8.4715    2.0432    0.5239 H   0  0  0  0  0  0  0  0  0  0  0  0
   -8.1943   -0.3032    1.3058 H   0  0  0  0  0  0  0  0  0  0  0  0
   -9.0261   -0.9115   -0.1622 H   0  0  0  0  0  0  0  0  0  0  0  0
   -7.1587    0.0717   -1.5947 H   0  0  0  0  0  0  0  0  0  0  0  0
   -6.6963   -1.2784   -0.5103 H   0  0  0  0  0  0  0  0  0  0  0  0
   -6.2228    1.7243    0.0359 H   0  0  0  0  0  0  0  0  0  0  0  0
   -5.7993    0.4092    1.1803 H   0  0  0  0  0  0  0  0  0  0  0  0
   -4.7145    0.5457   -1.7178 H   0  0  0  0  0  0  0  0  0  0  0  0
   -3.9459    1.3990   -0.3380 H   0  0  0  0  0  0  0  0  0  0  0  0
   -3.5893   -0.7442    0.8756 H   0  0  0  0  0  0  0  0  0  0  0  0
   -4.4588   -1.6439   -0.3953 H   0  0  0  0  0  0  0  0  0  0  0  0
   -2.0772   -1.9528   -0.7280 H   0  0  0  0  0  0  0  0  0  0  0  0
   -2.7712   -1.0403   -2.0976 H   0  0  0  0  0  0  0  0  0  0  0  0
   -0.5867   -0.1428   -1.4794 H   0  0  0  0  0  0  0  0  0  0  0  0
   -1.8305    1.0970   -1.1971 H   0  0  0  0  0  0  0  0  0  0  0  0
   -1.7959    0.7244    1.2158 H   0  0  0  0  0  0  0  0  0  0  0  0
   -0.7900   -0.7469    1.0666 H   0  0  0  0  0  0  0  0  0  0  0  0
    0.1286    1.8339    1.6167 H   0  0  0  0  0  0  0  0  0  0  0  0
    0.3964    1.8044   -0.1418 H   0  0  0  0  0  0  0  0  0  0  0  0
    2.3597    1.1150    1.2191 H   0  0  0  0  0  0  0  0  0  0  0  0
    1.4379   -0.2617    1.9108 H   0  0  0  0  0  0  0  0  0  0  0  0
    2.0150    0.1457   -1.1099 H   0  0  0  0  0  0  0  0  0  0  0  0
    1.1677   -1.2449   -0.3820 H   0  0  0  0  0  0  0  0  0  0  0  0
    2.5895   -2.6924   -1.4948 H   0  0  0  0  0  0  0  0  0  0  0  0
    3.6121   -1.3809   -2.1881 H   0  0  0  0  0  0  0  0  0  0  0  0
    4.3487   -2.7193   -1.2317 H   0  0  0  0  0  0  0  0  0  0  0  0
    2.2823   -2.7545    1.0864 H   0  0  0  0  0  0  0  0  0  0  0  0
    3.2842   -1.6170    2.0609 H   0  0  0  0  0  0  0  0  0  0  0  0
    4.0616   -2.8965    1.0851 H   0  0  0  0  0  0  0  0  0  0  0  0
    4.3572    0.2244    1.0965 H   0  0  0  0  0  0  0  0  0  0  0  0
    4.3069    0.5543   -0.6630 H   0  0  0  0  0  0  0  0  0  0  0  0
    6.0322   -1.1213   -1.1063 H   0  0  0  0  0  0  0  0  0  0  0  0
    5.9280   -1.7660    0.5651 H   0  0  0  0  0  0  0  0  0  0  0  0
    7.8980   -0.4264    0.3802 H   0  0  0  0  0  0  0  0  0  0  0  0
    6.7724    0.3965    1.4859 H   0  0  0  0  0  0  0  0  0  0  0  0
    6.6400    1.2068   -1.4776 H   0  0  0  0  0  0  0  0  0  0  0  0
    8.1451    1.6116   -0.6032 H   0  0  0  0  0  0  0  0  0  0  0  0
    6.8844    2.8472    1.1356 H   0  0  0  0  0  0  0  0  0  0  0  0
    6.5334    3.4834   -0.5135 H   0  0  0  0  0  0  0  0  0  0  0  0
    5.3220    2.4460    0.3207 H   0  0  0  0  0  0  0  0  0  0  0  0
  1  2  1  0
  2  3  1  0
  3  4  1  0
  4  5  1  0
  5  6  1  0
  6  7  1  0
  7  8  1  0
  8  9  1  0
  9 10  1  0
 10 11  1  0
 11 12  1  0
 12 13  1  0
 13 14  1  0
 13 15  1  0
 13 16  1  0
 16 17  1  0
 17 18  1  0
 18 19  1  0
 19 20  1  0
  1 21  1  0
  1 22  1  0
  1 23  1  0
  2 24  1  0
  2 25  1  0
  3 26  1  0
  3 27  1  0
  4 28  1  0
  4 29  1  0
  5 30  1  0
  5 31  1  0
  6 32  1  0
  6 33  1  0
  7 34  1  0
  7 35  1  0
  8 36  1  0
  8 37  1  0
  9 38  1  0
  9 39  1  0
 10 40  1  0
 10 41  1  0
 11 42  1  0
 11 43  1  0
 12 44  1  0
 12 45  1  0
 14 46  1  0
 14 47  1  0
 14 48  1  0
 15 49  1  0
 15 50  1  0
 15 51  1  0
 16 52  1  0
 16 53  1  0
 17 54  1  0
 17 55  1  0
 18 56  1  0
 18 57  1  0
 19 58  1  0
 19 59  1  0
 20 60  1  0
 20 61  1  0
 20 62  1  0
M  CHG  1  13   1
M  END
