251_CCCCCCCCCCCC[N+](C)(CCC)CCC
     RDKit          3D

 62 61  0  0  0  0  0  0  0  0999 V2000
    7.5811   -0.9848   -1.7881 C   0  0  0  0  0  0  0  0  0  0  0  0
    7.2490   -1.2362   -0.3179 C   0  0  0  0  0  0  0  0  0  0  0  0
    6.1290   -2.2734   -0.1254 C   0  0  0  0  0  0  0  0  0  0  0  0
    4.7717   -1.8918   -0.7509 C   0  0  0  0  0  0  0  0  0  0  0  0
    4.1928   -0.5398   -0.2955 C   0  0  0  0  0  0  0  0  0  0  0  0
    3.8856   -0.4975    1.2108 C   0  0  0  0  0  0  0  0  0  0  0  0
    3.3254    0.8608    1.6718 C   0  0  0  0  0  0  0  0  0  0  0  0
    1.9781    1.2626    1.0439 C   0  0  0  0  0  0  0  0  0  0  0  0
    0.8532    0.2602    1.3423 C   0  0  0  0  0  0  0  0  0  0  0  0
   -0.5027    0.7957    0.8631 C   0  0  0  0  0  0  0  0  0  0  0  0
   -1.6193   -0.2357    1.0893 C   0  0  0  0  0  0  0  0  0  0  0  0
   -3.0537    0.3596    1.1412 C   0  0  0  0  0  0  0  0  0  0  0  0
   -3.6467    0.8950   -0.1370 N   0  0  0  0  0  0  0  0  0  0  0  0
   -3.1141    2.2577   -0.4253 C   0  0  0  0  0  0  0  0  0  0  0  0
   -5.1410    0.9878    0.0082 C   0  0  0  0  0  0  0  0  0  0  0  0
   -5.6415    1.9880    1.0803 C   0  0  0  0  0  0  0  0  0  0  0  0
   -7.1651    1.9628    1.1788 C   0  0  0  0  0  0  0  0  0  0  0  0
   -3.3372    0.0352   -1.3279 C   0  0  0  0  0  0  0  0  0  0  0  0
   -3.8826   -1.4125   -1.2552 C   0  0  0  0  0  0  0  0  0  0  0  0
   -3.2729   -2.2822   -2.3515 C   0  0  0  0  0  0  0  0  0  0  0  0
    6.7411   -0.4677   -2.2967 H   0  0  0  0  0  0  0  0  0  0  0  0
    7.7958   -1.9431   -2.3071 H   0  0  0  0  0  0  0  0  0  0  0  0
    8.4790   -0.3354   -1.8579 H   0  0  0  0  0  0  0  0  0  0  0  0
    8.1639   -1.6192    0.1838 H   0  0  0  0  0  0  0  0  0  0  0  0
    6.9861   -0.2788    0.1787 H   0  0  0  0  0  0  0  0  0  0  0  0
    5.9975   -2.4628    0.9607 H   0  0  0  0  0  0  0  0  0  0  0  0
    6.4577   -3.2381   -0.5699 H   0  0  0  0  0  0  0  0  0  0  0  0
    4.0387   -2.6927   -0.5105 H   0  0  0  0  0  0  0  0  0  0  0  0
    4.8710   -1.8812   -1.8574 H   0  0  0  0  0  0  0  0  0  0  0  0
    4.8785    0.2884   -0.5718 H   0  0  0  0  0  0  0  0  0  0  0  0
    3.2509   -0.3868   -0.8624 H   0  0  0  0  0  0  0  0  0  0  0  0
    4.8242   -0.6672    1.7785 H   0  0  0  0  0  0  0  0  0  0  0  0
    3.1871   -1.3167    1.4827 H   0  0  0  0  0  0  0  0  0  0  0  0
    4.0717    1.6529    1.4435 H   0  0  0  0  0  0  0  0  0  0  0  0
    3.2093    0.8361    2.7774 H   0  0  0  0  0  0  0  0  0  0  0  0
    1.6962    2.2533    1.4633 H   0  0  0  0  0  0  0  0  0  0  0  0
    2.0878    1.3974   -0.0527 H   0  0  0  0  0  0  0  0  0  0  0  0
    1.0608   -0.6986    0.8203 H   0  0  0  0  0  0  0  0  0  0  0  0
    0.8092    0.0707    2.4374 H   0  0  0  0  0  0  0  0  0  0  0  0
   -0.7360    1.7364    1.4082 H   0  0  0  0  0  0  0  0  0  0  0  0
   -0.4168    1.0095   -0.2213 H   0  0  0  0  0  0  0  0  0  0  0  0
   -1.4512   -0.7126    2.0806 H   0  0  0  0  0  0  0  0  0  0  0  0
   -1.5325   -1.0590    0.3520 H   0  0  0  0  0  0  0  0  0  0  0  0
   -3.0554    1.1406    1.9331 H   0  0  0  0  0  0  0  0  0  0  0  0
   -3.7029   -0.4486    1.5471 H   0  0  0  0  0  0  0  0  0  0  0  0
   -3.0579    2.8877    0.4889 H   0  0  0  0  0  0  0  0  0  0  0  0
   -3.7503    2.7894   -1.1685 H   0  0  0  0  0  0  0  0  0  0  0  0
   -2.1000    2.2318   -0.8676 H   0  0  0  0  0  0  0  0  0  0  0  0
   -5.5642   -0.0057    0.2748 H   0  0  0  0  0  0  0  0  0  0  0  0
   -5.6033    1.2743   -0.9651 H   0  0  0  0  0  0  0  0  0  0  0  0
   -5.2323    1.7325    2.0789 H   0  0  0  0  0  0  0  0  0  0  0  0
   -5.3389    3.0244    0.8237 H   0  0  0  0  0  0  0  0  0  0  0  0
   -7.6200    2.2399    0.2039 H   0  0  0  0  0  0  0  0  0  0  0  0
   -7.5008    2.6917    1.9464 H   0  0  0  0  0  0  0  0  0  0  0  0
   -7.5171    0.9512    1.4736 H   0  0  0  0  0  0  0  0  0  0  0  0
   -2.2406    0.0020   -1.5091 H   0  0  0  0  0  0  0  0  0  0  0  0
   -3.7600    0.4998   -2.2493 H   0  0  0  0  0  0  0  0  0  0  0  0
   -3.6613   -1.8835   -0.2767 H   0  0  0  0  0  0  0  0  0  0  0  0
   -4.9836   -1.4106   -1.3998 H   0  0  0  0  0  0  0  0  0  0  0  0
   -2.1728   -2.3581   -2.2163 H   0  0  0  0  0  0  0  0  0  0  0  0
   -3.4914   -1.8516   -3.3520 H   0  0  0  0  0  0  0  0  0  0  0  0
   -3.7064   -3.3034   -2.3014 H   0  0  0  0  0  0  0  0  0  0  0  0
  1  2  1  0
  2  3  1  0
  3  4  1  0
  4  5  1  0
  5  6  1  0
  6  7  1  0
  7  8  1  0
  8  9  1  0
  9 10  1  0
 10 11  1  0
 11 12  1  0
 12 13  1  0
 13 14  1  0
 13 15  1  0
 15 16  1  0
 16 17  1  0
 13 18  1  0
 18 19  1  0
 19 20  1  0
  1 21  1  0
  1 22  1  0
  1 23  1  0
  2 24  1  0
  2 25  1  0
  3 26  1  0
  3 27  1  0
  4 28  1  0
  4 29  1  0
  5 30  1  0
  5 31  1  0
  6 32  1  0
  6 33  1  0
  7 34  1  0
  7 35  1  0
  8 36  1  0
  8 37  1  0
  9 38  1  0
  9 39  1  0
 10 40  1  0
 10 41  1  0
 11 42  1  0
 11 43  1  0
 12 44  1  0
 12 45  1  0
 14 46  1  0
 14 47  1  0
 14 48  1  0
 15 49  1  0
 15 50  1  0
 16 51  1  0
 16 52  1  0
 17 53  1  0
 17 54  1  0
 17 55  1  0
 18 56  1  0
 18 57  1  0
 19 58  1  0
 19 59  1  0
 20 60  1  0
 20 61  1  0
 20 62  1  0
M  CHG  1  13   1
M  END
