253_CCCCCCCCCCC[N+](C)(C)CCCCCC
     RDKit          3D

 62 61  0  0  0  0  0  0  0  0999 V2000
   -8.0653    1.7364    0.1426 C   0  0  0  0  0  0  0  0  0  0  0  0
   -7.5540    0.3453    0.5150 C   0  0  0  0  0  0  0  0  0  0  0  0
   -6.6105   -0.2506   -0.5444 C   0  0  0  0  0  0  0  0  0  0  0  0
   -5.3140    0.5496   -0.7819 C   0  0  0  0  0  0  0  0  0  0  0  0
   -4.4359    0.7550    0.4681 C   0  0  0  0  0  0  0  0  0  0  0  0
   -3.9906   -0.5433    1.1695 C   0  0  0  0  0  0  0  0  0  0  0  0
   -3.2104   -1.5318    0.2795 C   0  0  0  0  0  0  0  0  0  0  0  0
   -1.9397   -0.9585   -0.3734 C   0  0  0  0  0  0  0  0  0  0  0  0
   -0.8896   -0.5098    0.6583 C   0  0  0  0  0  0  0  0  0  0  0  0
    0.4289   -0.0675   -0.0003 C   0  0  0  0  0  0  0  0  0  0  0  0
    1.3363   -1.2727   -0.3606 C   0  0  0  0  0  0  0  0  0  0  0  0
    2.5780   -0.9339   -1.1320 N   0  0  0  0  0  0  0  0  0  0  0  0
    3.3076   -2.2108   -1.3471 C   0  0  0  0  0  0  0  0  0  0  0  0
    2.2094   -0.3659   -2.4569 C   0  0  0  0  0  0  0  0  0  0  0  0
    3.4218    0.0259   -0.3474 C   0  0  0  0  0  0  0  0  0  0  0  0
    4.8275    0.3371   -0.9400 C   0  0  0  0  0  0  0  0  0  0  0  0
    5.9864   -0.3860   -0.2246 C   0  0  0  0  0  0  0  0  0  0  0  0
    6.2747    0.1018    1.2100 C   0  0  0  0  0  0  0  0  0  0  0  0
    6.7174    1.5775    1.2921 C   0  0  0  0  0  0  0  0  0  0  0  0
    5.6061    2.4872    1.8166 C   0  0  0  0  0  0  0  0  0  0  0  0
   -7.2422    2.4796    0.1821 H   0  0  0  0  0  0  0  0  0  0  0  0
   -8.8462    2.0487    0.8675 H   0  0  0  0  0  0  0  0  0  0  0  0
   -8.5101    1.7278   -0.8752 H   0  0  0  0  0  0  0  0  0  0  0  0
   -8.4305   -0.3309    0.6155 H   0  0  0  0  0  0  0  0  0  0  0  0
   -7.0577    0.3807    1.5073 H   0  0  0  0  0  0  0  0  0  0  0  0
   -7.1580   -0.3229   -1.5095 H   0  0  0  0  0  0  0  0  0  0  0  0
   -6.3556   -1.2911   -0.2523 H   0  0  0  0  0  0  0  0  0  0  0  0
   -5.5699    1.5453   -1.2017 H   0  0  0  0  0  0  0  0  0  0  0  0
   -4.7202    0.0353   -1.5668 H   0  0  0  0  0  0  0  0  0  0  0  0
   -4.9819    1.3853    1.2012 H   0  0  0  0  0  0  0  0  0  0  0  0
   -3.5393    1.3432    0.1797 H   0  0  0  0  0  0  0  0  0  0  0  0
   -3.3711   -0.2753    2.0513 H   0  0  0  0  0  0  0  0  0  0  0  0
   -4.8826   -1.0639    1.5775 H   0  0  0  0  0  0  0  0  0  0  0  0
   -2.9273   -2.4107    0.8988 H   0  0  0  0  0  0  0  0  0  0  0  0
   -3.8800   -1.9161   -0.5188 H   0  0  0  0  0  0  0  0  0  0  0  0
   -1.5127   -1.7552   -1.0169 H   0  0  0  0  0  0  0  0  0  0  0  0
   -2.1999   -0.1119   -1.0431 H   0  0  0  0  0  0  0  0  0  0  0  0
   -1.2927    0.3594    1.2204 H   0  0  0  0  0  0  0  0  0  0  0  0
   -0.6959   -1.3242    1.3905 H   0  0  0  0  0  0  0  0  0  0  0  0
    0.9565    0.5766    0.7341 H   0  0  0  0  0  0  0  0  0  0  0  0
    0.1979    0.5510   -0.8915 H   0  0  0  0  0  0  0  0  0  0  0  0
    1.6102   -1.7797    0.5938 H   0  0  0  0  0  0  0  0  0  0  0  0
    0.7318   -2.0117   -0.9315 H   0  0  0  0  0  0  0  0  0  0  0  0
    4.2033   -2.0800   -1.9901 H   0  0  0  0  0  0  0  0  0  0  0  0
    3.6373   -2.6501   -0.3791 H   0  0  0  0  0  0  0  0  0  0  0  0
    2.6623   -2.9598   -1.8595 H   0  0  0  0  0  0  0  0  0  0  0  0
    1.8939    0.6963   -2.3750 H   0  0  0  0  0  0  0  0  0  0  0  0
    3.0563   -0.3968   -3.1748 H   0  0  0  0  0  0  0  0  0  0  0  0
    1.3792   -0.9405   -2.9252 H   0  0  0  0  0  0  0  0  0  0  0  0
    3.5223   -0.3330    0.6989 H   0  0  0  0  0  0  0  0  0  0  0  0
    2.9002    1.0050   -0.2723 H   0  0  0  0  0  0  0  0  0  0  0  0
    5.0077    1.4313   -0.9043 H   0  0  0  0  0  0  0  0  0  0  0  0
    4.8789    0.0900   -2.0172 H   0  0  0  0  0  0  0  0  0  0  0  0
    6.9090   -0.2555   -0.8315 H   0  0  0  0  0  0  0  0  0  0  0  0
    5.7821   -1.4761   -0.1917 H   0  0  0  0  0  0  0  0  0  0  0  0
    7.1052   -0.5253    1.6023 H   0  0  0  0  0  0  0  0  0  0  0  0
    5.4113   -0.0977    1.8786 H   0  0  0  0  0  0  0  0  0  0  0  0
    7.0687    1.9477    0.3046 H   0  0  0  0  0  0  0  0  0  0  0  0
    7.5782    1.6578    1.9914 H   0  0  0  0  0  0  0  0  0  0  0  0
    4.7041    2.4282    1.1748 H   0  0  0  0  0  0  0  0  0  0  0  0
    5.3304    2.1954    2.8524 H   0  0  0  0  0  0  0  0  0  0  0  0
    5.9627    3.5386    1.8300 H   0  0  0  0  0  0  0  0  0  0  0  0
  1  2  1  0
  2  3  1  0
  3  4  1  0
  4  5  1  0
  5  6  1  0
  6  7  1  0
  7  8  1  0
  8  9  1  0
  9 10  1  0
 10 11  1  0
 11 12  1  0
 12 13  1  0
 12 14  1  0
 12 15  1  0
 15 16  1  0
 16 17  1  0
 17 18  1  0
 18 19  1  0
 19 20  1  0
  1 21  1  0
  1 22  1  0
  1 23  1  0
  2 24  1  0
  2 25  1  0
  3 26  1  0
  3 27  1  0
  4 28  1  0
  4 29  1  0
  5 30  1  0
  5 31  1  0
  6 32  1  0
  6 33  1  0
  7 34  1  0
  7 35  1  0
  8 36  1  0
  8 37  1  0
  9 38  1  0
  9 39  1  0
 10 40  1  0
 10 41  1  0
 11 42  1  0
 11 43  1  0
 13 44  1  0
 13 45  1  0
 13 46  1  0
 14 47  1  0
 14 48  1  0
 14 49  1  0
 15 50  1  0
 15 51  1  0
 16 52  1  0
 16 53  1  0
 17 54  1  0
 17 55  1  0
 18 56  1  0
 18 57  1  0
 19 58  1  0
 19 59  1  0
 20 60  1  0
 20 61  1  0
 20 62  1  0
M  CHG  1  12   1
M  END
