256_CCCCCCCCCCC[N+](CC)(CC)CCCC
     RDKit          3D

 62 61  0  0  0  0  0  0  0  0999 V2000
    8.6456    0.0410   -1.4842 C   0  0  0  0  0  0  0  0  0  0  0  0
    8.0600   -0.9854   -0.5145 C   0  0  0  0  0  0  0  0  0  0  0  0
    6.5239   -1.0238   -0.5423 C   0  0  0  0  0  0  0  0  0  0  0  0
    5.8919    0.2167    0.1129 C   0  0  0  0  0  0  0  0  0  0  0  0
    4.3549    0.1690    0.1063 C   0  0  0  0  0  0  0  0  0  0  0  0
    3.7884   -0.7709    1.1849 C   0  0  0  0  0  0  0  0  0  0  0  0
    2.2536   -0.8482    1.1512 C   0  0  0  0  0  0  0  0  0  0  0  0
    1.5831    0.4523    1.6293 C   0  0  0  0  0  0  0  0  0  0  0  0
    0.0737    0.2864    1.8697 C   0  0  0  0  0  0  0  0  0  0  0  0
   -0.7130    0.0712    0.5661 C   0  0  0  0  0  0  0  0  0  0  0  0
   -2.2313    0.0172    0.8419 C   0  0  0  0  0  0  0  0  0  0  0  0
   -3.1307   -0.0429   -0.3658 N   0  0  0  0  0  0  0  0  0  0  0  0
   -2.7397   -1.1974   -1.2626 C   0  0  0  0  0  0  0  0  0  0  0  0
   -1.7038   -0.9197   -2.3755 C   0  0  0  0  0  0  0  0  0  0  0  0
   -3.1064    1.2816   -1.0794 C   0  0  0  0  0  0  0  0  0  0  0  0
   -4.1805    1.4536   -2.1700 C   0  0  0  0  0  0  0  0  0  0  0  0
   -4.5213   -0.3553    0.1312 C   0  0  0  0  0  0  0  0  0  0  0  0
   -5.1326    0.6556    1.1400 C   0  0  0  0  0  0  0  0  0  0  0  0
   -6.6012    0.3340    1.4652 C   0  0  0  0  0  0  0  0  0  0  0  0
   -7.5615    0.7678    0.3566 C   0  0  0  0  0  0  0  0  0  0  0  0
    9.7506   -0.0657   -1.5102 H   0  0  0  0  0  0  0  0  0  0  0  0
    8.2517   -0.1230   -2.5097 H   0  0  0  0  0  0  0  0  0  0  0  0
    8.4080    1.0739   -1.1566 H   0  0  0  0  0  0  0  0  0  0  0  0
    8.4196   -0.7731    0.5158 H   0  0  0  0  0  0  0  0  0  0  0  0
    8.4409   -1.9895   -0.8021 H   0  0  0  0  0  0  0  0  0  0  0  0
    6.1697   -1.1216   -1.5919 H   0  0  0  0  0  0  0  0  0  0  0  0
    6.2037   -1.9340    0.0060 H   0  0  0  0  0  0  0  0  0  0  0  0
    6.2010    1.1204   -0.4535 H   0  0  0  0  0  0  0  0  0  0  0  0
    6.2622    0.3298    1.1555 H   0  0  0  0  0  0  0  0  0  0  0  0
    3.9903   -0.1368   -0.8989 H   0  0  0  0  0  0  0  0  0  0  0  0
    3.9878    1.1994    0.2979 H   0  0  0  0  0  0  0  0  0  0  0  0
    4.1264   -0.4410    2.1917 H   0  0  0  0  0  0  0  0  0  0  0  0
    4.1770   -1.7974    1.0212 H   0  0  0  0  0  0  0  0  0  0  0  0
    1.9389   -1.6825    1.8157 H   0  0  0  0  0  0  0  0  0  0  0  0
    1.9231   -1.0940    0.1193 H   0  0  0  0  0  0  0  0  0  0  0  0
    1.7474    1.2638    0.8887 H   0  0  0  0  0  0  0  0  0  0  0  0
    2.0481    0.7693    2.5883 H   0  0  0  0  0  0  0  0  0  0  0  0
   -0.1056   -0.5626    2.5655 H   0  0  0  0  0  0  0  0  0  0  0  0
   -0.2943    1.2109    2.3664 H   0  0  0  0  0  0  0  0  0  0  0  0
   -0.4738    0.9040   -0.1260 H   0  0  0  0  0  0  0  0  0  0  0  0
   -0.3892   -0.8948    0.1302 H   0  0  0  0  0  0  0  0  0  0  0  0
   -2.4735    0.9163    1.4503 H   0  0  0  0  0  0  0  0  0  0  0  0
   -2.4110   -0.8653    1.4991 H   0  0  0  0  0  0  0  0  0  0  0  0
   -3.6257   -1.6059   -1.8007 H   0  0  0  0  0  0  0  0  0  0  0  0
   -2.3694   -2.0508   -0.6504 H   0  0  0  0  0  0  0  0  0  0  0  0
   -0.7859   -0.4234   -2.0169 H   0  0  0  0  0  0  0  0  0  0  0  0
   -2.1429   -0.3053   -3.1869 H   0  0  0  0  0  0  0  0  0  0  0  0
   -1.4002   -1.8861   -2.8306 H   0  0  0  0  0  0  0  0  0  0  0  0
   -2.1195    1.4669   -1.5482 H   0  0  0  0  0  0  0  0  0  0  0  0
   -3.2178    2.1236   -0.3630 H   0  0  0  0  0  0  0  0  0  0  0  0
   -5.1718    1.6599   -1.7159 H   0  0  0  0  0  0  0  0  0  0  0  0
   -3.9201    2.3242   -2.8082 H   0  0  0  0  0  0  0  0  0  0  0  0
   -4.2603    0.5587   -2.8183 H   0  0  0  0  0  0  0  0  0  0  0  0
   -5.2206   -0.4640   -0.7240 H   0  0  0  0  0  0  0  0  0  0  0  0
   -4.5273   -1.3550    0.6259 H   0  0  0  0  0  0  0  0  0  0  0  0
   -4.5754    0.5996    2.0982 H   0  0  0  0  0  0  0  0  0  0  0  0
   -5.0703    1.6987    0.7720 H   0  0  0  0  0  0  0  0  0  0  0  0
   -6.7244   -0.7530    1.6632 H   0  0  0  0  0  0  0  0  0  0  0  0
   -6.8831    0.8764    2.3939 H   0  0  0  0  0  0  0  0  0  0  0  0
   -7.4304    1.8470    0.1290 H   0  0  0  0  0  0  0  0  0  0  0  0
   -7.3997    0.1751   -0.5665 H   0  0  0  0  0  0  0  0  0  0  0  0
   -8.6074    0.6041    0.6915 H   0  0  0  0  0  0  0  0  0  0  0  0
  1  2  1  0
  2  3  1  0
  3  4  1  0
  4  5  1  0
  5  6  1  0
  6  7  1  0
  7  8  1  0
  8  9  1  0
  9 10  1  0
 10 11  1  0
 11 12  1  0
 12 13  1  0
 13 14  1  0
 12 15  1  0
 15 16  1  0
 12 17  1  0
 17 18  1  0
 18 19  1  0
 19 20  1  0
  1 21  1  0
  1 22  1  0
  1 23  1  0
  2 24  1  0
  2 25  1  0
  3 26  1  0
  3 27  1  0
  4 28  1  0
  4 29  1  0
  5 30  1  0
  5 31  1  0
  6 32  1  0
  6 33  1  0
  7 34  1  0
  7 35  1  0
  8 36  1  0
  8 37  1  0
  9 38  1  0
  9 39  1  0
 10 40  1  0
 10 41  1  0
 11 42  1  0
 11 43  1  0
 13 44  1  0
 13 45  1  0
 14 46  1  0
 14 47  1  0
 14 48  1  0
 15 49  1  0
 15 50  1  0
 16 51  1  0
 16 52  1  0
 16 53  1  0
 17 54  1  0
 17 55  1  0
 18 56  1  0
 18 57  1  0
 19 58  1  0
 19 59  1  0
 20 60  1  0
 20 61  1  0
 20 62  1  0
M  CHG  1  12   1
M  END
