261_CCCCCCCCCC[N+](C)(CCCC)CCCC
     RDKit          3D

 62 61  0  0  0  0  0  0  0  0999 V2000
    7.8111   -1.2927   -1.3892 C   0  0  0  0  0  0  0  0  0  0  0  0
    7.0750   -0.1371   -2.0666 C   0  0  0  0  0  0  0  0  0  0  0  0
    5.5623   -0.1594   -1.7991 C   0  0  0  0  0  0  0  0  0  0  0  0
    5.2178    0.1674   -0.3354 C   0  0  0  0  0  0  0  0  0  0  0  0
    3.7127    0.3919   -0.1207 C   0  0  0  0  0  0  0  0  0  0  0  0
    2.8926   -0.8977   -0.3013 C   0  0  0  0  0  0  0  0  0  0  0  0
    1.4373   -0.7407    0.1664 C   0  0  0  0  0  0  0  0  0  0  0  0
    0.6204    0.1878   -0.7504 C   0  0  0  0  0  0  0  0  0  0  0  0
   -0.8742    0.2014   -0.3879 C   0  0  0  0  0  0  0  0  0  0  0  0
   -1.1724    1.1021    0.8438 C   0  0  0  0  0  0  0  0  0  0  0  0
   -2.5519    0.9949    1.4432 N   0  0  0  0  0  0  0  0  0  0  0  0
   -2.8542    2.3034    2.0981 C   0  0  0  0  0  0  0  0  0  0  0  0
   -2.5939   -0.0150    2.5627 C   0  0  0  0  0  0  0  0  0  0  0  0
   -2.0631   -1.4482    2.2977 C   0  0  0  0  0  0  0  0  0  0  0  0
   -3.0398   -2.3752    1.5504 C   0  0  0  0  0  0  0  0  0  0  0  0
   -2.7294   -3.8453    1.8249 C   0  0  0  0  0  0  0  0  0  0  0  0
   -3.6361    0.7084    0.4441 C   0  0  0  0  0  0  0  0  0  0  0  0
   -3.9004    1.8409   -0.5811 C   0  0  0  0  0  0  0  0  0  0  0  0
   -4.6991    1.3238   -1.7842 C   0  0  0  0  0  0  0  0  0  0  0  0
   -5.0022    2.4475   -2.7711 C   0  0  0  0  0  0  0  0  0  0  0  0
    8.8746   -1.2901   -1.7084 H   0  0  0  0  0  0  0  0  0  0  0  0
    7.7816   -1.1837   -0.2853 H   0  0  0  0  0  0  0  0  0  0  0  0
    7.3580   -2.2649   -1.6779 H   0  0  0  0  0  0  0  0  0  0  0  0
    7.2388   -0.2148   -3.1634 H   0  0  0  0  0  0  0  0  0  0  0  0
    7.5095    0.8294   -1.7305 H   0  0  0  0  0  0  0  0  0  0  0  0
    5.0866    0.5967   -2.4612 H   0  0  0  0  0  0  0  0  0  0  0  0
    5.1558   -1.1559   -2.0755 H   0  0  0  0  0  0  0  0  0  0  0  0
    5.7484    1.0980   -0.0371 H   0  0  0  0  0  0  0  0  0  0  0  0
    5.5662   -0.6495    0.3322 H   0  0  0  0  0  0  0  0  0  0  0  0
    3.3555    1.1755   -0.8225 H   0  0  0  0  0  0  0  0  0  0  0  0
    3.5679    0.7726    0.9140 H   0  0  0  0  0  0  0  0  0  0  0  0
    2.9045   -1.2138   -1.3664 H   0  0  0  0  0  0  0  0  0  0  0  0
    3.3584   -1.7103    0.2982 H   0  0  0  0  0  0  0  0  0  0  0  0
    1.4256   -0.3675    1.2120 H   0  0  0  0  0  0  0  0  0  0  0  0
    0.9695   -1.7496    0.1658 H   0  0  0  0  0  0  0  0  0  0  0  0
    1.0203    1.2234   -0.7109 H   0  0  0  0  0  0  0  0  0  0  0  0
    0.7187   -0.1719   -1.7982 H   0  0  0  0  0  0  0  0  0  0  0  0
   -1.2220   -0.8382   -0.2578 H   0  0  0  0  0  0  0  0  0  0  0  0
   -1.4177    0.6026   -1.2681 H   0  0  0  0  0  0  0  0  0  0  0  0
   -0.9711    2.1428    0.4997 H   0  0  0  0  0  0  0  0  0  0  0  0
   -0.4104    0.9214    1.6326 H   0  0  0  0  0  0  0  0  0  0  0  0
   -3.8731    2.3057    2.5482 H   0  0  0  0  0  0  0  0  0  0  0  0
   -2.7944    3.1563    1.3883 H   0  0  0  0  0  0  0  0  0  0  0  0
   -2.1211    2.5355    2.9040 H   0  0  0  0  0  0  0  0  0  0  0  0
   -3.6248   -0.0942    2.9785 H   0  0  0  0  0  0  0  0  0  0  0  0
   -1.9770    0.3551    3.4158 H   0  0  0  0  0  0  0  0  0  0  0  0
   -1.8951   -1.8932    3.3043 H   0  0  0  0  0  0  0  0  0  0  0  0
   -1.0616   -1.4494    1.8293 H   0  0  0  0  0  0  0  0  0  0  0  0
   -4.0865   -2.1696    1.8622 H   0  0  0  0  0  0  0  0  0  0  0  0
   -2.9563   -2.2285    0.4574 H   0  0  0  0  0  0  0  0  0  0  0  0
   -1.6848   -4.0799    1.5278 H   0  0  0  0  0  0  0  0  0  0  0  0
   -2.8659   -4.0758    2.9030 H   0  0  0  0  0  0  0  0  0  0  0  0
   -3.4191   -4.4877    1.2376 H   0  0  0  0  0  0  0  0  0  0  0  0
   -3.4170   -0.2134   -0.1176 H   0  0  0  0  0  0  0  0  0  0  0  0
   -4.5995    0.5114    0.9679 H   0  0  0  0  0  0  0  0  0  0  0  0
   -2.9483    2.2811   -0.9422 H   0  0  0  0  0  0  0  0  0  0  0  0
   -4.4900    2.6469   -0.0923 H   0  0  0  0  0  0  0  0  0  0  0  0
   -5.6576    0.8816   -1.4351 H   0  0  0  0  0  0  0  0  0  0  0  0
   -4.1171    0.5350   -2.3091 H   0  0  0  0  0  0  0  0  0  0  0  0
   -5.5768    2.0425   -3.6305 H   0  0  0  0  0  0  0  0  0  0  0  0
   -5.6076    3.2393   -2.2807 H   0  0  0  0  0  0  0  0  0  0  0  0
   -4.0577    2.8909   -3.1526 H   0  0  0  0  0  0  0  0  0  0  0  0
  1  2  1  0
  2  3  1  0
  3  4  1  0
  4  5  1  0
  5  6  1  0
  6  7  1  0
  7  8  1  0
  8  9  1  0
  9 10  1  0
 10 11  1  0
 11 12  1  0
 11 13  1  0
 13 14  1  0
 14 15  1  0
 15 16  1  0
 11 17  1  0
 17 18  1  0
 18 19  1  0
 19 20  1  0
  1 21  1  0
  1 22  1  0
  1 23  1  0
  2 24  1  0
  2 25  1  0
  3 26  1  0
  3 27  1  0
  4 28  1  0
  4 29  1  0
  5 30  1  0
  5 31  1  0
  6 32  1  0
  6 33  1  0
  7 34  1  0
  7 35  1  0
  8 36  1  0
  8 37  1  0
  9 38  1  0
  9 39  1  0
 10 40  1  0
 10 41  1  0
 12 42  1  0
 12 43  1  0
 12 44  1  0
 13 45  1  0
 13 46  1  0
 14 47  1  0
 14 48  1  0
 15 49  1  0
 15 50  1  0
 16 51  1  0
 16 52  1  0
 16 53  1  0
 17 54  1  0
 17 55  1  0
 18 56  1  0
 18 57  1  0
 19 58  1  0
 19 59  1  0
 20 60  1  0
 20 61  1  0
 20 62  1  0
M  CHG  1  11   1
M  END
