265_CCCCCCCCC[N+](C)(C)CCCCCCCC
     RDKit          3D

 62 61  0  0  0  0  0  0  0  0999 V2000
   -6.1995    2.2543   -1.8206 C   0  0  0  0  0  0  0  0  0  0  0  0
   -7.0016    1.2807   -0.9574 C   0  0  0  0  0  0  0  0  0  0  0  0
   -6.2015    0.0240   -0.5824 C   0  0  0  0  0  0  0  0  0  0  0  0
   -5.0595    0.3253    0.4033 C   0  0  0  0  0  0  0  0  0  0  0  0
   -4.4168   -0.9503    0.9768 C   0  0  0  0  0  0  0  0  0  0  0  0
   -3.7501   -1.8652   -0.0700 C   0  0  0  0  0  0  0  0  0  0  0  0
   -2.6589   -1.1943   -0.9293 C   0  0  0  0  0  0  0  0  0  0  0  0
   -1.5230   -0.5180   -0.1387 C   0  0  0  0  0  0  0  0  0  0  0  0
   -0.7048   -1.5244    0.7085 C   0  0  0  0  0  0  0  0  0  0  0  0
    0.4571   -0.9361    1.4506 N   0  0  0  0  0  0  0  0  0  0  0  0
   -0.0396   -0.0301    2.5197 C   0  0  0  0  0  0  0  0  0  0  0  0
    1.1865   -2.0448    2.1197 C   0  0  0  0  0  0  0  0  0  0  0  0
    1.4018   -0.1583    0.5858 C   0  0  0  0  0  0  0  0  0  0  0  0
    1.9947   -0.9416   -0.6122 C   0  0  0  0  0  0  0  0  0  0  0  0
    2.8039   -0.0450   -1.5689 C   0  0  0  0  0  0  0  0  0  0  0  0
    4.0056    0.6831   -0.9379 C   0  0  0  0  0  0  0  0  0  0  0  0
    5.0663   -0.2783   -0.3779 C   0  0  0  0  0  0  0  0  0  0  0  0
    6.2663    0.4570    0.2426 C   0  0  0  0  0  0  0  0  0  0  0  0
    7.1342    1.2073   -0.7900 C   0  0  0  0  0  0  0  0  0  0  0  0
    6.9276    2.7207   -0.7304 C   0  0  0  0  0  0  0  0  0  0  0  0
   -5.3622    2.6951   -1.2409 H   0  0  0  0  0  0  0  0  0  0  0  0
   -6.8607    3.0811   -2.1554 H   0  0  0  0  0  0  0  0  0  0  0  0
   -5.7972    1.7380   -2.7181 H   0  0  0  0  0  0  0  0  0  0  0  0
   -7.9007    0.9662   -1.5305 H   0  0  0  0  0  0  0  0  0  0  0  0
   -7.3536    1.7993   -0.0393 H   0  0  0  0  0  0  0  0  0  0  0  0
   -5.7976   -0.4408   -1.5073 H   0  0  0  0  0  0  0  0  0  0  0  0
   -6.9013   -0.7023   -0.1144 H   0  0  0  0  0  0  0  0  0  0  0  0
   -5.4646    0.9116    1.2568 H   0  0  0  0  0  0  0  0  0  0  0  0
   -4.2844    0.9510   -0.0845 H   0  0  0  0  0  0  0  0  0  0  0  0
   -5.1979   -1.5370    1.5076 H   0  0  0  0  0  0  0  0  0  0  0  0
   -3.6689   -0.6627    1.7460 H   0  0  0  0  0  0  0  0  0  0  0  0
   -3.3191   -2.7454    0.4516 H   0  0  0  0  0  0  0  0  0  0  0  0
   -4.5297   -2.2736   -0.7474 H   0  0  0  0  0  0  0  0  0  0  0  0
   -3.1313   -0.4387   -1.5927 H   0  0  0  0  0  0  0  0  0  0  0  0
   -2.2191   -1.9644   -1.5999 H   0  0  0  0  0  0  0  0  0  0  0  0
   -0.8655   -0.0363   -0.8901 H   0  0  0  0  0  0  0  0  0  0  0  0
   -1.9435    0.2871    0.4945 H   0  0  0  0  0  0  0  0  0  0  0  0
   -1.3939   -2.0057    1.4372 H   0  0  0  0  0  0  0  0  0  0  0  0
   -0.3678   -2.3495    0.0433 H   0  0  0  0  0  0  0  0  0  0  0  0
   -0.4991    0.8897    2.0995 H   0  0  0  0  0  0  0  0  0  0  0  0
    0.7919    0.3024    3.1819 H   0  0  0  0  0  0  0  0  0  0  0  0
   -0.7990   -0.5327    3.1600 H   0  0  0  0  0  0  0  0  0  0  0  0
    0.5444   -2.5467    2.8787 H   0  0  0  0  0  0  0  0  0  0  0  0
    1.4972   -2.8281    1.3955 H   0  0  0  0  0  0  0  0  0  0  0  0
    2.0993   -1.6760    2.6396 H   0  0  0  0  0  0  0  0  0  0  0  0
    0.9104    0.7627    0.2019 H   0  0  0  0  0  0  0  0  0  0  0  0
    2.2503    0.2024    1.2095 H   0  0  0  0  0  0  0  0  0  0  0  0
    1.1818   -1.3873   -1.2186 H   0  0  0  0  0  0  0  0  0  0  0  0
    2.6337   -1.7758   -0.2608 H   0  0  0  0  0  0  0  0  0  0  0  0
    3.1687   -0.6697   -2.4134 H   0  0  0  0  0  0  0  0  0  0  0  0
    2.1214    0.7174   -2.0044 H   0  0  0  0  0  0  0  0  0  0  0  0
    3.6633    1.3825   -0.1464 H   0  0  0  0  0  0  0  0  0  0  0  0
    4.4656    1.2976   -1.7396 H   0  0  0  0  0  0  0  0  0  0  0  0
    5.4190   -0.9632   -1.1798 H   0  0  0  0  0  0  0  0  0  0  0  0
    4.6136   -0.8982    0.4240 H   0  0  0  0  0  0  0  0  0  0  0  0
    6.9032   -0.3088    0.7376 H   0  0  0  0  0  0  0  0  0  0  0  0
    5.9140    1.1381    1.0488 H   0  0  0  0  0  0  0  0  0  0  0  0
    6.9341    0.8466   -1.8224 H   0  0  0  0  0  0  0  0  0  0  0  0
    8.2065    1.0025   -0.5781 H   0  0  0  0  0  0  0  0  0  0  0  0
    7.5534    3.2115   -1.5053 H   0  0  0  0  0  0  0  0  0  0  0  0
    5.8663    2.9852   -0.9135 H   0  0  0  0  0  0  0  0  0  0  0  0
    7.2303    3.1091    0.2653 H   0  0  0  0  0  0  0  0  0  0  0  0
  1  2  1  0
  2  3  1  0
  3  4  1  0
  4  5  1  0
  5  6  1  0
  6  7  1  0
  7  8  1  0
  8  9  1  0
  9 10  1  0
 10 11  1  0
 10 12  1  0
 10 13  1  0
 13 14  1  0
 14 15  1  0
 15 16  1  0
 16 17  1  0
 17 18  1  0
 18 19  1  0
 19 20  1  0
  1 21  1  0
  1 22  1  0
  1 23  1  0
  2 24  1  0
  2 25  1  0
  3 26  1  0
  3 27  1  0
  4 28  1  0
  4 29  1  0
  5 30  1  0
  5 31  1  0
  6 32  1  0
  6 33  1  0
  7 34  1  0
  7 35  1  0
  8 36  1  0
  8 37  1  0
  9 38  1  0
  9 39  1  0
 11 40  1  0
 11 41  1  0
 11 42  1  0
 12 43  1  0
 12 44  1  0
 12 45  1  0
 13 46  1  0
 13 47  1  0
 14 48  1  0
 14 49  1  0
 15 50  1  0
 15 51  1  0
 16 52  1  0
 16 53  1  0
 17 54  1  0
 17 55  1  0
 18 56  1  0
 18 57  1  0
 19 58  1  0
 19 59  1  0
 20 60  1  0
 20 61  1  0
 20 62  1  0
M  CHG  1  10   1
M  END
