273_CCCCCCCC[N+](C)(CC)CCCCCCCC
     RDKit          3D

 62 61  0  0  0  0  0  0  0  0999 V2000
   -5.6096    3.0307   -0.6472 C   0  0  0  0  0  0  0  0  0  0  0  0
   -5.5105    1.5078   -0.7263 C   0  0  0  0  0  0  0  0  0  0  0  0
   -4.0882    1.0142   -1.0440 C   0  0  0  0  0  0  0  0  0  0  0  0
   -3.0246    1.3812    0.0104 C   0  0  0  0  0  0  0  0  0  0  0  0
   -3.3102    0.8564    1.4311 C   0  0  0  0  0  0  0  0  0  0  0  0
   -3.4931   -0.6718    1.5429 C   0  0  0  0  0  0  0  0  0  0  0  0
   -2.3464   -1.5210    0.9598 C   0  0  0  0  0  0  0  0  0  0  0  0
   -1.0133   -1.3322    1.7212 C   0  0  0  0  0  0  0  0  0  0  0  0
    0.1789   -2.0623    1.1642 N   0  0  0  0  0  0  0  0  0  0  0  0
    1.2737   -1.8262    2.1493 C   0  0  0  0  0  0  0  0  0  0  0  0
   -0.0701   -3.5478    1.1042 C   0  0  0  0  0  0  0  0  0  0  0  0
   -0.6364   -4.0987   -0.2211 C   0  0  0  0  0  0  0  0  0  0  0  0
    0.5791   -1.4494   -0.1485 C   0  0  0  0  0  0  0  0  0  0  0  0
    1.8892   -2.0112   -0.7757 C   0  0  0  0  0  0  0  0  0  0  0  0
    3.0773   -1.0367   -0.6807 C   0  0  0  0  0  0  0  0  0  0  0  0
    2.9801    0.0989   -1.7156 C   0  0  0  0  0  0  0  0  0  0  0  0
    4.1984    1.0357   -1.6798 C   0  0  0  0  0  0  0  0  0  0  0  0
    4.1649    1.9978   -0.4793 C   0  0  0  0  0  0  0  0  0  0  0  0
    5.3909    2.9231   -0.4327 C   0  0  0  0  0  0  0  0  0  0  0  0
    5.3641    3.9986   -1.5186 C   0  0  0  0  0  0  0  0  0  0  0  0
   -6.6765    3.3272   -0.5651 H   0  0  0  0  0  0  0  0  0  0  0  0
   -5.1820    3.4965   -1.5604 H   0  0  0  0  0  0  0  0  0  0  0  0
   -5.0769    3.4117    0.2487 H   0  0  0  0  0  0  0  0  0  0  0  0
   -5.8801    1.0581    0.2188 H   0  0  0  0  0  0  0  0  0  0  0  0
   -6.1857    1.1581   -1.5370 H   0  0  0  0  0  0  0  0  0  0  0  0
   -3.7726    1.4396   -2.0215 H   0  0  0  0  0  0  0  0  0  0  0  0
   -4.1152   -0.0878   -1.1769 H   0  0  0  0  0  0  0  0  0  0  0  0
   -2.0380    1.0011   -0.3300 H   0  0  0  0  0  0  0  0  0  0  0  0
   -2.9193    2.4857    0.0557 H   0  0  0  0  0  0  0  0  0  0  0  0
   -4.2224    1.3504    1.8270 H   0  0  0  0  0  0  0  0  0  0  0  0
   -2.4875    1.1818    2.1012 H   0  0  0  0  0  0  0  0  0  0  0  0
   -3.6232   -0.9316    2.6161 H   0  0  0  0  0  0  0  0  0  0  0  0
   -4.4388   -0.9593    1.0357 H   0  0  0  0  0  0  0  0  0  0  0  0
   -2.2418   -1.2970   -0.1176 H   0  0  0  0  0  0  0  0  0  0  0  0
   -2.6677   -2.5781    1.0597 H   0  0  0  0  0  0  0  0  0  0  0  0
   -0.7860   -0.2449    1.7688 H   0  0  0  0  0  0  0  0  0  0  0  0
   -1.2021   -1.6490    2.7737 H   0  0  0  0  0  0  0  0  0  0  0  0
    2.2147   -2.3443    1.8686 H   0  0  0  0  0  0  0  0  0  0  0  0
    0.9986   -2.2106    3.1579 H   0  0  0  0  0  0  0  0  0  0  0  0
    1.5036   -0.7411    2.2496 H   0  0  0  0  0  0  0  0  0  0  0  0
    0.8676   -4.1201    1.2888 H   0  0  0  0  0  0  0  0  0  0  0  0
   -0.7526   -3.8580    1.9274 H   0  0  0  0  0  0  0  0  0  0  0  0
   -1.5086   -3.5329   -0.5933 H   0  0  0  0  0  0  0  0  0  0  0  0
    0.1411   -4.1102   -1.0109 H   0  0  0  0  0  0  0  0  0  0  0  0
   -0.9587   -5.1500   -0.0660 H   0  0  0  0  0  0  0  0  0  0  0  0
   -0.2221   -1.5807   -0.9026 H   0  0  0  0  0  0  0  0  0  0  0  0
    0.6660   -0.3457   -0.0357 H   0  0  0  0  0  0  0  0  0  0  0  0
    1.7084   -2.2509   -1.8469 H   0  0  0  0  0  0  0  0  0  0  0  0
    2.1823   -2.9723   -0.3077 H   0  0  0  0  0  0  0  0  0  0  0  0
    3.1405   -0.6241    0.3461 H   0  0  0  0  0  0  0  0  0  0  0  0
    4.0118   -1.6091   -0.8694 H   0  0  0  0  0  0  0  0  0  0  0  0
    2.0519    0.6904   -1.5659 H   0  0  0  0  0  0  0  0  0  0  0  0
    2.9251   -0.3522   -2.7307 H   0  0  0  0  0  0  0  0  0  0  0  0
    4.1919    1.6282   -2.6188 H   0  0  0  0  0  0  0  0  0  0  0  0
    5.1358    0.4376   -1.6650 H   0  0  0  0  0  0  0  0  0  0  0  0
    4.1547    1.4108    0.4625 H   0  0  0  0  0  0  0  0  0  0  0  0
    3.2350    2.6072   -0.5058 H   0  0  0  0  0  0  0  0  0  0  0  0
    6.3249    2.3268   -0.5208 H   0  0  0  0  0  0  0  0  0  0  0  0
    5.4093    3.4305    0.5563 H   0  0  0  0  0  0  0  0  0  0  0  0
    5.4867    3.5470   -2.5244 H   0  0  0  0  0  0  0  0  0  0  0  0
    4.4106    4.5669   -1.4806 H   0  0  0  0  0  0  0  0  0  0  0  0
    6.2032    4.7073   -1.3555 H   0  0  0  0  0  0  0  0  0  0  0  0
  1  2  1  0
  2  3  1  0
  3  4  1  0
  4  5  1  0
  5  6  1  0
  6  7  1  0
  7  8  1  0
  8  9  1  0
  9 10  1  0
  9 11  1  0
 11 12  1  0
  9 13  1  0
 13 14  1  0
 14 15  1  0
 15 16  1  0
 16 17  1  0
 17 18  1  0
 18 19  1  0
 19 20  1  0
  1 21  1  0
  1 22  1  0
  1 23  1  0
  2 24  1  0
  2 25  1  0
  3 26  1  0
  3 27  1  0
  4 28  1  0
  4 29  1  0
  5 30  1  0
  5 31  1  0
  6 32  1  0
  6 33  1  0
  7 34  1  0
  7 35  1  0
  8 36  1  0
  8 37  1  0
 10 38  1  0
 10 39  1  0
 10 40  1  0
 11 41  1  0
 11 42  1  0
 12 43  1  0
 12 44  1  0
 12 45  1  0
 13 46  1  0
 13 47  1  0
 14 48  1  0
 14 49  1  0
 15 50  1  0
 15 51  1  0
 16 52  1  0
 16 53  1  0
 17 54  1  0
 17 55  1  0
 18 56  1  0
 18 57  1  0
 19 58  1  0
 19 59  1  0
 20 60  1  0
 20 61  1  0
 20 62  1  0
M  CHG  1   9   1
M  END
