280_CCCCCCCC[N+](CCC)(CCC)CCCCC
     RDKit          3D

 62 61  0  0  0  0  0  0  0  0999 V2000
    6.9725    0.7301    2.5749 C   0  0  0  0  0  0  0  0  0  0  0  0
    5.7679    0.0067    1.9796 C   0  0  0  0  0  0  0  0  0  0  0  0
    4.5594    0.9477    1.8658 C   0  0  0  0  0  0  0  0  0  0  0  0
    3.2863    0.2244    1.3983 C   0  0  0  0  0  0  0  0  0  0  0  0
    3.3332   -0.1490   -0.0945 C   0  0  0  0  0  0  0  0  0  0  0  0
    2.0503   -0.8552   -0.5635 C   0  0  0  0  0  0  0  0  0  0  0  0
    0.8789    0.1178   -0.7709 C   0  0  0  0  0  0  0  0  0  0  0  0
   -0.3779   -0.6399   -1.2764 C   0  0  0  0  0  0  0  0  0  0  0  0
   -1.6643    0.1430   -1.2601 N   0  0  0  0  0  0  0  0  0  0  0  0
   -1.5264    1.2993   -2.2167 C   0  0  0  0  0  0  0  0  0  0  0  0
   -2.7944    2.1766   -2.4440 C   0  0  0  0  0  0  0  0  0  0  0  0
   -3.4605    1.9337   -3.7984 C   0  0  0  0  0  0  0  0  0  0  0  0
   -2.7929   -0.7651   -1.6697 C   0  0  0  0  0  0  0  0  0  0  0  0
   -2.6190   -1.4893   -3.0297 C   0  0  0  0  0  0  0  0  0  0  0  0
   -3.9109   -2.1901   -3.4449 C   0  0  0  0  0  0  0  0  0  0  0  0
   -1.9652    0.6845    0.1169 C   0  0  0  0  0  0  0  0  0  0  0  0
   -1.8042   -0.3128    1.2969 C   0  0  0  0  0  0  0  0  0  0  0  0
   -2.1220    0.3754    2.6340 C   0  0  0  0  0  0  0  0  0  0  0  0
   -2.0169   -0.5813    3.8323 C   0  0  0  0  0  0  0  0  0  0  0  0
   -0.5720   -0.9533    4.1680 C   0  0  0  0  0  0  0  0  0  0  0  0
    7.2598    1.5916    1.9351 H   0  0  0  0  0  0  0  0  0  0  0  0
    6.7380    1.0945    3.5978 H   0  0  0  0  0  0  0  0  0  0  0  0
    7.8330    0.0309    2.6366 H   0  0  0  0  0  0  0  0  0  0  0  0
    6.0514   -0.3758    0.9768 H   0  0  0  0  0  0  0  0  0  0  0  0
    5.5129   -0.8584    2.6296 H   0  0  0  0  0  0  0  0  0  0  0  0
    4.7940    1.7850    1.1724 H   0  0  0  0  0  0  0  0  0  0  0  0
    4.3545    1.3877    2.8667 H   0  0  0  0  0  0  0  0  0  0  0  0
    3.1239   -0.6873    2.0141 H   0  0  0  0  0  0  0  0  0  0  0  0
    2.4303    0.9069    1.5807 H   0  0  0  0  0  0  0  0  0  0  0  0
    3.5133    0.7588   -0.7112 H   0  0  0  0  0  0  0  0  0  0  0  0
    4.1795   -0.8463   -0.2672 H   0  0  0  0  0  0  0  0  0  0  0  0
    1.7677   -1.6425    0.1699 H   0  0  0  0  0  0  0  0  0  0  0  0
    2.2651   -1.3604   -1.5309 H   0  0  0  0  0  0  0  0  0  0  0  0
    0.6801    0.6419    0.1801 H   0  0  0  0  0  0  0  0  0  0  0  0
    1.1849    0.8753   -1.5233 H   0  0  0  0  0  0  0  0  0  0  0  0
   -0.4979   -1.5866   -0.7033 H   0  0  0  0  0  0  0  0  0  0  0  0
   -0.1327   -0.9580   -2.3134 H   0  0  0  0  0  0  0  0  0  0  0  0
   -1.1226    0.9625   -3.1963 H   0  0  0  0  0  0  0  0  0  0  0  0
   -0.7452    1.9958   -1.8404 H   0  0  0  0  0  0  0  0  0  0  0  0
   -2.4860    3.2452   -2.4227 H   0  0  0  0  0  0  0  0  0  0  0  0
   -3.5553    2.0687   -1.6499 H   0  0  0  0  0  0  0  0  0  0  0  0
   -4.2544    2.6934   -3.9594 H   0  0  0  0  0  0  0  0  0  0  0  0
   -3.9368    0.9352   -3.8318 H   0  0  0  0  0  0  0  0  0  0  0  0
   -2.7205    2.0228   -4.6218 H   0  0  0  0  0  0  0  0  0  0  0  0
   -2.9300   -1.5701   -0.9182 H   0  0  0  0  0  0  0  0  0  0  0  0
   -3.7558   -0.2111   -1.6782 H   0  0  0  0  0  0  0  0  0  0  0  0
   -2.3307   -0.7896   -3.8372 H   0  0  0  0  0  0  0  0  0  0  0  0
   -1.8331   -2.2696   -2.9481 H   0  0  0  0  0  0  0  0  0  0  0  0
   -3.7541   -2.7205   -4.4079 H   0  0  0  0  0  0  0  0  0  0  0  0
   -4.7290   -1.4510   -3.5780 H   0  0  0  0  0  0  0  0  0  0  0  0
   -4.2112   -2.9330   -2.6754 H   0  0  0  0  0  0  0  0  0  0  0  0
   -3.0123    1.0509    0.1684 H   0  0  0  0  0  0  0  0  0  0  0  0
   -1.3378    1.5777    0.3333 H   0  0  0  0  0  0  0  0  0  0  0  0
   -2.4908   -1.1746    1.1781 H   0  0  0  0  0  0  0  0  0  0  0  0
   -0.7682   -0.6953    1.3486 H   0  0  0  0  0  0  0  0  0  0  0  0
   -1.4414    1.2418    2.7870 H   0  0  0  0  0  0  0  0  0  0  0  0
   -3.1620    0.7675    2.5969 H   0  0  0  0  0  0  0  0  0  0  0  0
   -2.4607   -0.0803    4.7198 H   0  0  0  0  0  0  0  0  0  0  0  0
   -2.6051   -1.5047    3.6394 H   0  0  0  0  0  0  0  0  0  0  0  0
   -0.5516   -1.5314    5.1158 H   0  0  0  0  0  0  0  0  0  0  0  0
    0.0457   -0.0395    4.2992 H   0  0  0  0  0  0  0  0  0  0  0  0
   -0.1308   -1.5864    3.3708 H   0  0  0  0  0  0  0  0  0  0  0  0
  1  2  1  0
  2  3  1  0
  3  4  1  0
  4  5  1  0
  5  6  1  0
  6  7  1  0
  7  8  1  0
  8  9  1  0
  9 10  1  0
 10 11  1  0
 11 12  1  0
  9 13  1  0
 13 14  1  0
 14 15  1  0
  9 16  1  0
 16 17  1  0
 17 18  1  0
 18 19  1  0
 19 20  1  0
  1 21  1  0
  1 22  1  0
  1 23  1  0
  2 24  1  0
  2 25  1  0
  3 26  1  0
  3 27  1  0
  4 28  1  0
  4 29  1  0
  5 30  1  0
  5 31  1  0
  6 32  1  0
  6 33  1  0
  7 34  1  0
  7 35  1  0
  8 36  1  0
  8 37  1  0
 10 38  1  0
 10 39  1  0
 11 40  1  0
 11 41  1  0
 12 42  1  0
 12 43  1  0
 12 44  1  0
 13 45  1  0
 13 46  1  0
 14 47  1  0
 14 48  1  0
 15 49  1  0
 15 50  1  0
 15 51  1  0
 16 52  1  0
 16 53  1  0
 17 54  1  0
 17 55  1  0
 18 56  1  0
 18 57  1  0
 19 58  1  0
 19 59  1  0
 20 60  1  0
 20 61  1  0
 20 62  1  0
M  CHG  1   9   1
M  END
