301_CCCCCCCCCCCCCC[N+](CC)(CC)CC
     RDKit          3D

 65 64  0  0  0  0  0  0  0  0999 V2000
    8.4919   -0.3477   -0.3646 C   0  0  0  0  0  0  0  0  0  0  0  0
    7.7706    0.8806    0.1886 C   0  0  0  0  0  0  0  0  0  0  0  0
    6.6496    1.3850   -0.7368 C   0  0  0  0  0  0  0  0  0  0  0  0
    5.5127    0.3749   -0.9931 C   0  0  0  0  0  0  0  0  0  0  0  0
    4.8103   -0.1561    0.2694 C   0  0  0  0  0  0  0  0  0  0  0  0
    4.1207    0.9552    1.0791 C   0  0  0  0  0  0  0  0  0  0  0  0
    3.3468    0.4159    2.2943 C   0  0  0  0  0  0  0  0  0  0  0  0
    2.1090   -0.4379    1.9559 C   0  0  0  0  0  0  0  0  0  0  0  0
    1.0080    0.3309    1.1945 C   0  0  0  0  0  0  0  0  0  0  0  0
    0.9757   -0.0231   -0.3034 C   0  0  0  0  0  0  0  0  0  0  0  0
   -0.1569    0.7129   -1.0512 C   0  0  0  0  0  0  0  0  0  0  0  0
   -1.3589   -0.1853   -1.3908 C   0  0  0  0  0  0  0  0  0  0  0  0
   -2.1246   -0.6578   -0.1449 C   0  0  0  0  0  0  0  0  0  0  0  0
   -3.3889   -1.5021   -0.4989 C   0  0  0  0  0  0  0  0  0  0  0  0
   -4.7196   -0.8760   -0.1692 N   0  0  0  0  0  0  0  0  0  0  0  0
   -4.8586    0.4539   -0.8684 C   0  0  0  0  0  0  0  0  0  0  0  0
   -4.9145    0.4009   -2.4088 C   0  0  0  0  0  0  0  0  0  0  0  0
   -5.7617   -1.8493   -0.6531 C   0  0  0  0  0  0  0  0  0  0  0  0
   -7.2229   -1.4497   -0.3887 C   0  0  0  0  0  0  0  0  0  0  0  0
   -4.8138   -0.7659    1.3413 C   0  0  0  0  0  0  0  0  0  0  0  0
   -5.5849    0.4413    1.9067 C   0  0  0  0  0  0  0  0  0  0  0  0
    9.3708   -0.5782    0.2736 H   0  0  0  0  0  0  0  0  0  0  0  0
    8.8463   -0.1568   -1.3998 H   0  0  0  0  0  0  0  0  0  0  0  0
    7.8207   -1.2315   -0.3592 H   0  0  0  0  0  0  0  0  0  0  0  0
    8.5156    1.6973    0.3048 H   0  0  0  0  0  0  0  0  0  0  0  0
    7.3734    0.6600    1.2014 H   0  0  0  0  0  0  0  0  0  0  0  0
    6.2261    2.3194   -0.3117 H   0  0  0  0  0  0  0  0  0  0  0  0
    7.0953    1.6636   -1.7166 H   0  0  0  0  0  0  0  0  0  0  0  0
    5.9121   -0.4874   -1.5685 H   0  0  0  0  0  0  0  0  0  0  0  0
    4.7538    0.8608   -1.6447 H   0  0  0  0  0  0  0  0  0  0  0  0
    4.0533   -0.8931   -0.0683 H   0  0  0  0  0  0  0  0  0  0  0  0
    5.5309   -0.7052    0.9111 H   0  0  0  0  0  0  0  0  0  0  0  0
    4.8970    1.6466    1.4696 H   0  0  0  0  0  0  0  0  0  0  0  0
    3.4508    1.5548    0.4289 H   0  0  0  0  0  0  0  0  0  0  0  0
    4.0369   -0.1904    2.9209 H   0  0  0  0  0  0  0  0  0  0  0  0
    3.0231    1.2785    2.9171 H   0  0  0  0  0  0  0  0  0  0  0  0
    1.6800   -0.7785    2.9238 H   0  0  0  0  0  0  0  0  0  0  0  0
    2.4049   -1.3649    1.4215 H   0  0  0  0  0  0  0  0  0  0  0  0
    1.1373    1.4282    1.3207 H   0  0  0  0  0  0  0  0  0  0  0  0
    0.0263    0.0738    1.6447 H   0  0  0  0  0  0  0  0  0  0  0  0
    0.8785   -1.1235   -0.4309 H   0  0  0  0  0  0  0  0  0  0  0  0
    1.9432    0.2657   -0.7632 H   0  0  0  0  0  0  0  0  0  0  0  0
   -0.5029    1.6065   -0.4862 H   0  0  0  0  0  0  0  0  0  0  0  0
    0.2528    1.0928   -2.0129 H   0  0  0  0  0  0  0  0  0  0  0  0
   -2.0404    0.4058   -2.0349 H   0  0  0  0  0  0  0  0  0  0  0  0
   -1.0142   -1.0642   -1.9785 H   0  0  0  0  0  0  0  0  0  0  0  0
   -2.3584    0.2205    0.4896 H   0  0  0  0  0  0  0  0  0  0  0  0
   -1.4465   -1.3043    0.4520 H   0  0  0  0  0  0  0  0  0  0  0  0
   -3.2955   -2.4665    0.0547 H   0  0  0  0  0  0  0  0  0  0  0  0
   -3.3415   -1.8156   -1.5646 H   0  0  0  0  0  0  0  0  0  0  0  0
   -5.7876    0.9748   -0.5648 H   0  0  0  0  0  0  0  0  0  0  0  0
   -4.0417    1.1445   -0.5773 H   0  0  0  0  0  0  0  0  0  0  0  0
   -5.8914    0.0048   -2.7556 H   0  0  0  0  0  0  0  0  0  0  0  0
   -4.1022   -0.2030   -2.8521 H   0  0  0  0  0  0  0  0  0  0  0  0
   -4.8213    1.4328   -2.8084 H   0  0  0  0  0  0  0  0  0  0  0  0
   -5.6542   -2.0422   -1.7430 H   0  0  0  0  0  0  0  0  0  0  0  0
   -5.6101   -2.8460   -0.1773 H   0  0  0  0  0  0  0  0  0  0  0  0
   -7.4503   -1.4610    0.6958 H   0  0  0  0  0  0  0  0  0  0  0  0
   -7.8895   -2.1986   -0.8663 H   0  0  0  0  0  0  0  0  0  0  0  0
   -7.4735   -0.4632   -0.8247 H   0  0  0  0  0  0  0  0  0  0  0  0
   -5.2661   -1.6839    1.7803 H   0  0  0  0  0  0  0  0  0  0  0  0
   -3.8161   -0.7296    1.8260 H   0  0  0  0  0  0  0  0  0  0  0  0
   -5.0453    1.3871    1.6901 H   0  0  0  0  0  0  0  0  0  0  0  0
   -6.6184    0.5002    1.5142 H   0  0  0  0  0  0  0  0  0  0  0  0
   -5.6518    0.3444    3.0111 H   0  0  0  0  0  0  0  0  0  0  0  0
  1  2  1  0
  2  3  1  0
  3  4  1  0
  4  5  1  0
  5  6  1  0
  6  7  1  0
  7  8  1  0
  8  9  1  0
  9 10  1  0
 10 11  1  0
 11 12  1  0
 12 13  1  0
 13 14  1  0
 14 15  1  0
 15 16  1  0
 16 17  1  0
 15 18  1  0
 18 19  1  0
 15 20  1  0
 20 21  1  0
  1 22  1  0
  1 23  1  0
  1 24  1  0
  2 25  1  0
  2 26  1  0
  3 27  1  0
  3 28  1  0
  4 29  1  0
  4 30  1  0
  5 31  1  0
  5 32  1  0
  6 33  1  0
  6 34  1  0
  7 35  1  0
  7 36  1  0
  8 37  1  0
  8 38  1  0
  9 39  1  0
  9 40  1  0
 10 41  1  0
 10 42  1  0
 11 43  1  0
 11 44  1  0
 12 45  1  0
 12 46  1  0
 13 47  1  0
 13 48  1  0
 14 49  1  0
 14 50  1  0
 16 51  1  0
 16 52  1  0
 17 53  1  0
 17 54  1  0
 17 55  1  0
 18 56  1  0
 18 57  1  0
 19 58  1  0
 19 59  1  0
 19 60  1  0
 20 61  1  0
 20 62  1  0
 21 63  1  0
 21 64  1  0
 21 65  1  0
M  CHG  1  15   1
M  END
