318_CCCCCCCCCC[N+](C)(C)CCCCCCCC
     RDKit          3D

 65 64  0  0  0  0  0  0  0  0999 V2000
    7.6912    0.3273    2.3464 C   0  0  0  0  0  0  0  0  0  0  0  0
    6.4142    1.0030    2.8446 C   0  0  0  0  0  0  0  0  0  0  0  0
    5.7896    1.9510    1.8055 C   0  0  0  0  0  0  0  0  0  0  0  0
    5.3446    1.2736    0.4967 C   0  0  0  0  0  0  0  0  0  0  0  0
    4.2370    0.2311    0.7093 C   0  0  0  0  0  0  0  0  0  0  0  0
    3.7008   -0.2825   -0.6325 C   0  0  0  0  0  0  0  0  0  0  0  0
    2.5959   -1.3278   -0.4192 C   0  0  0  0  0  0  0  0  0  0  0  0
    2.1214   -1.9705   -1.7356 C   0  0  0  0  0  0  0  0  0  0  0  0
    1.4777   -1.0017   -2.7465 C   0  0  0  0  0  0  0  0  0  0  0  0
    0.3309   -0.0693   -2.2474 C   0  0  0  0  0  0  0  0  0  0  0  0
   -1.0234   -0.6690   -1.9435 N   0  0  0  0  0  0  0  0  0  0  0  0
   -1.3684   -1.7329   -2.9190 C   0  0  0  0  0  0  0  0  0  0  0  0
   -1.0001   -1.2460   -0.5754 C   0  0  0  0  0  0  0  0  0  0  0  0
   -2.0302    0.4591   -1.9821 C   0  0  0  0  0  0  0  0  0  0  0  0
   -3.5336    0.1252   -2.2288 C   0  0  0  0  0  0  0  0  0  0  0  0
   -4.3113   -0.5828   -1.1061 C   0  0  0  0  0  0  0  0  0  0  0  0
   -4.2586    0.1664    0.2344 C   0  0  0  0  0  0  0  0  0  0  0  0
   -5.1700   -0.5038    1.2730 C   0  0  0  0  0  0  0  0  0  0  0  0
   -5.0048    0.0859    2.6854 C   0  0  0  0  0  0  0  0  0  0  0  0
   -5.3721    1.5752    2.8108 C   0  0  0  0  0  0  0  0  0  0  0  0
   -6.8367    1.8595    2.4802 C   0  0  0  0  0  0  0  0  0  0  0  0
    8.4040    1.0832    1.9537 H   0  0  0  0  0  0  0  0  0  0  0  0
    8.1753   -0.2121    3.1876 H   0  0  0  0  0  0  0  0  0  0  0  0
    7.4584   -0.4127    1.5529 H   0  0  0  0  0  0  0  0  0  0  0  0
    6.6678    1.6006    3.7469 H   0  0  0  0  0  0  0  0  0  0  0  0
    5.6814    0.2324    3.1631 H   0  0  0  0  0  0  0  0  0  0  0  0
    6.5252    2.7475    1.5589 H   0  0  0  0  0  0  0  0  0  0  0  0
    4.9120    2.4539    2.2672 H   0  0  0  0  0  0  0  0  0  0  0  0
    4.9632    2.0699   -0.1796 H   0  0  0  0  0  0  0  0  0  0  0  0
    6.2150    0.8059   -0.0105 H   0  0  0  0  0  0  0  0  0  0  0  0
    3.4034    0.6879    1.2870 H   0  0  0  0  0  0  0  0  0  0  0  0
    4.6418   -0.6287    1.2848 H   0  0  0  0  0  0  0  0  0  0  0  0
    3.2943    0.5763   -1.2082 H   0  0  0  0  0  0  0  0  0  0  0  0
    4.5345   -0.7373   -1.2115 H   0  0  0  0  0  0  0  0  0  0  0  0
    1.7448   -0.8693    0.1232 H   0  0  0  0  0  0  0  0  0  0  0  0
    2.9921   -2.1407    0.2279 H   0  0  0  0  0  0  0  0  0  0  0  0
    3.0021   -2.4379   -2.2284 H   0  0  0  0  0  0  0  0  0  0  0  0
    1.4373   -2.8147   -1.5243 H   0  0  0  0  0  0  0  0  0  0  0  0
    2.2903   -0.3424   -3.1224 H   0  0  0  0  0  0  0  0  0  0  0  0
    1.1642   -1.5672   -3.6478 H   0  0  0  0  0  0  0  0  0  0  0  0
    0.6916    0.5400   -1.3896 H   0  0  0  0  0  0  0  0  0  0  0  0
    0.2397    0.6658   -3.0783 H   0  0  0  0  0  0  0  0  0  0  0  0
   -2.3528   -2.1931   -2.6941 H   0  0  0  0  0  0  0  0  0  0  0  0
   -1.3832   -1.3290   -3.9554 H   0  0  0  0  0  0  0  0  0  0  0  0
   -0.6550   -2.5820   -2.8685 H   0  0  0  0  0  0  0  0  0  0  0  0
   -0.7347   -0.4792    0.1860 H   0  0  0  0  0  0  0  0  0  0  0  0
   -0.2846   -2.0789   -0.4867 H   0  0  0  0  0  0  0  0  0  0  0  0
   -1.9699   -1.6828   -0.2898 H   0  0  0  0  0  0  0  0  0  0  0  0
   -1.9360    1.1012   -1.0784 H   0  0  0  0  0  0  0  0  0  0  0  0
   -1.7957    1.1497   -2.8229 H   0  0  0  0  0  0  0  0  0  0  0  0
   -4.0512    1.0941   -2.4078 H   0  0  0  0  0  0  0  0  0  0  0  0
   -3.6629   -0.4342   -3.1785 H   0  0  0  0  0  0  0  0  0  0  0  0
   -5.3744   -0.6368   -1.4295 H   0  0  0  0  0  0  0  0  0  0  0  0
   -3.9841   -1.6344   -0.9961 H   0  0  0  0  0  0  0  0  0  0  0  0
   -3.2201    0.1786    0.6237 H   0  0  0  0  0  0  0  0  0  0  0  0
   -4.5893    1.2141    0.0704 H   0  0  0  0  0  0  0  0  0  0  0  0
   -4.9146   -1.5848    1.3292 H   0  0  0  0  0  0  0  0  0  0  0  0
   -6.2304   -0.4361    0.9494 H   0  0  0  0  0  0  0  0  0  0  0  0
   -3.9497   -0.0471    3.0100 H   0  0  0  0  0  0  0  0  0  0  0  0
   -5.6354   -0.4999    3.3893 H   0  0  0  0  0  0  0  0  0  0  0  0
   -5.1867    1.8882    3.8612 H   0  0  0  0  0  0  0  0  0  0  0  0
   -4.7144    2.1966    2.1675 H   0  0  0  0  0  0  0  0  0  0  0  0
   -7.0757    2.9123    2.7396 H   0  0  0  0  0  0  0  0  0  0  0  0
   -7.5045    1.1907    3.0637 H   0  0  0  0  0  0  0  0  0  0  0  0
   -7.0270    1.7216    1.3956 H   0  0  0  0  0  0  0  0  0  0  0  0
  1  2  1  0
  2  3  1  0
  3  4  1  0
  4  5  1  0
  5  6  1  0
  6  7  1  0
  7  8  1  0
  8  9  1  0
  9 10  1  0
 10 11  1  0
 11 12  1  0
 11 13  1  0
 11 14  1  0
 14 15  1  0
 15 16  1  0
 16 17  1  0
 17 18  1  0
 18 19  1  0
 19 20  1  0
 20 21  1  0
  1 22  1  0
  1 23  1  0
  1 24  1  0
  2 25  1  0
  2 26  1  0
  3 27  1  0
  3 28  1  0
  4 29  1  0
  4 30  1  0
  5 31  1  0
  5 32  1  0
  6 33  1  0
  6 34  1  0
  7 35  1  0
  7 36  1  0
  8 37  1  0
  8 38  1  0
  9 39  1  0
  9 40  1  0
 10 41  1  0
 10 42  1  0
 12 43  1  0
 12 44  1  0
 12 45  1  0
 13 46  1  0
 13 47  1  0
 13 48  1  0
 14 49  1  0
 14 50  1  0
 15 51  1  0
 15 52  1  0
 16 53  1  0
 16 54  1  0
 17 55  1  0
 17 56  1  0
 18 57  1  0
 18 58  1  0
 19 59  1  0
 19 60  1  0
 20 61  1  0
 20 62  1  0
 21 63  1  0
 21 64  1  0
 21 65  1  0
M  CHG  1  11   1
M  END
