331_CCCC[N+](C)(CCCC)CCCC
     RDKit          3D

 44 43  0  0  0  0  0  0  0  0999 V2000
    4.2688   -1.3180   -0.1192 C   0  0  0  0  0  0  0  0  0  0  0  0
    3.7603    0.0097    0.4187 C   0  0  0  0  0  0  0  0  0  0  0  0
    2.6811   -0.1290    1.4913 C   0  0  0  0  0  0  0  0  0  0  0  0
    1.4274   -0.9608    1.1861 C   0  0  0  0  0  0  0  0  0  0  0  0
    0.3813   -0.3731    0.1738 N   0  0  0  0  0  0  0  0  0  0  0  0
    0.8726   -0.5998   -1.2524 C   0  0  0  0  0  0  0  0  0  0  0  0
   -0.9300   -1.1826    0.4545 C   0  0  0  0  0  0  0  0  0  0  0  0
   -1.8766   -1.3446   -0.7381 C   0  0  0  0  0  0  0  0  0  0  0  0
   -3.1837   -2.0101   -0.2973 C   0  0  0  0  0  0  0  0  0  0  0  0
   -4.1342   -2.2032   -1.4684 C   0  0  0  0  0  0  0  0  0  0  0  0
    0.1913    1.1338    0.4690 C   0  0  0  0  0  0  0  0  0  0  0  0
   -0.9646    1.7969   -0.2778 C   0  0  0  0  0  0  0  0  0  0  0  0
   -0.9789    3.3205   -0.1026 C   0  0  0  0  0  0  0  0  0  0  0  0
   -1.2173    3.7654    1.3322 C   0  0  0  0  0  0  0  0  0  0  0  0
    4.6221   -1.9605    0.6936 H   0  0  0  0  0  0  0  0  0  0  0  0
    3.4943   -1.8559   -0.6717 H   0  0  0  0  0  0  0  0  0  0  0  0
    5.1064   -1.1491   -0.8037 H   0  0  0  0  0  0  0  0  0  0  0  0
    4.6103    0.5409    0.8661 H   0  0  0  0  0  0  0  0  0  0  0  0
    3.4206    0.6480   -0.4003 H   0  0  0  0  0  0  0  0  0  0  0  0
    2.4068    0.8685    1.8512 H   0  0  0  0  0  0  0  0  0  0  0  0
    3.1606   -0.6086    2.3567 H   0  0  0  0  0  0  0  0  0  0  0  0
    1.6833   -1.9673    0.8364 H   0  0  0  0  0  0  0  0  0  0  0  0
    0.8820   -1.0708    2.1329 H   0  0  0  0  0  0  0  0  0  0  0  0
    0.1132   -0.2625   -1.9603 H   0  0  0  0  0  0  0  0  0  0  0  0
    1.7746   -0.0161   -1.4207 H   0  0  0  0  0  0  0  0  0  0  0  0
    1.0684   -1.6672   -1.3866 H   0  0  0  0  0  0  0  0  0  0  0  0
   -1.4212   -0.6974    1.3059 H   0  0  0  0  0  0  0  0  0  0  0  0
   -0.6192   -2.1860    0.7720 H   0  0  0  0  0  0  0  0  0  0  0  0
   -1.4080   -1.9762   -1.5021 H   0  0  0  0  0  0  0  0  0  0  0  0
   -2.1115   -0.3886   -1.2102 H   0  0  0  0  0  0  0  0  0  0  0  0
   -2.9712   -2.9846    0.1577 H   0  0  0  0  0  0  0  0  0  0  0  0
   -3.6749   -1.3948    0.4656 H   0  0  0  0  0  0  0  0  0  0  0  0
   -4.3931   -1.2429   -1.9259 H   0  0  0  0  0  0  0  0  0  0  0  0
   -3.6854   -2.8405   -2.2369 H   0  0  0  0  0  0  0  0  0  0  0  0
   -5.0601   -2.6790   -1.1305 H   0  0  0  0  0  0  0  0  0  0  0  0
    0.0409    1.2173    1.5511 H   0  0  0  0  0  0  0  0  0  0  0  0
    1.1297    1.6285    0.1974 H   0  0  0  0  0  0  0  0  0  0  0  0
   -0.8957    1.5932   -1.3508 H   0  0  0  0  0  0  0  0  0  0  0  0
   -1.9227    1.4029    0.0770 H   0  0  0  0  0  0  0  0  0  0  0  0
   -1.7753    3.7343   -0.7328 H   0  0  0  0  0  0  0  0  0  0  0  0
   -0.0357    3.7462   -0.4644 H   0  0  0  0  0  0  0  0  0  0  0  0
   -0.3866    3.4796    1.9841 H   0  0  0  0  0  0  0  0  0  0  0  0
   -2.1380    3.3285    1.7315 H   0  0  0  0  0  0  0  0  0  0  0  0
   -1.3126    4.8552    1.3762 H   0  0  0  0  0  0  0  0  0  0  0  0
  1  2  1  0
  2  3  1  0
  3  4  1  0
  4  5  1  0
  5  6  1  0
  5  7  1  0
  7  8  1  0
  8  9  1  0
  9 10  1  0
  5 11  1  0
 11 12  1  0
 12 13  1  0
 13 14  1  0
  1 15  1  0
  1 16  1  0
  1 17  1  0
  2 18  1  0
  2 19  1  0
  3 20  1  0
  3 21  1  0
  4 22  1  0
  4 23  1  0
  6 24  1  0
  6 25  1  0
  6 26  1  0
  7 27  1  0
  7 28  1  0
  8 29  1  0
  8 30  1  0
  9 31  1  0
  9 32  1  0
 10 33  1  0
 10 34  1  0
 10 35  1  0
 11 36  1  0
 11 37  1  0
 12 38  1  0
 12 39  1  0
 13 40  1  0
 13 41  1  0
 14 42  1  0
 14 43  1  0
 14 44  1  0
M  CHG  1   5   1
M  END
