335_CCCC[N+](CCC)(CCC)CCC
     RDKit          3D

 44 43  0  0  0  0  0  0  0  0999 V2000
    4.7426   -0.6697    0.4861 C   0  0  0  0  0  0  0  0  0  0  0  0
    3.6438    0.3739    0.3612 C   0  0  0  0  0  0  0  0  0  0  0  0
    2.2525   -0.2623    0.4410 C   0  0  0  0  0  0  0  0  0  0  0  0
    1.1660    0.8129    0.3265 C   0  0  0  0  0  0  0  0  0  0  0  0
   -0.3006    0.2532    0.2342 N   0  0  0  0  0  0  0  0  0  0  0  0
   -0.4157   -0.5953   -1.0595 C   0  0  0  0  0  0  0  0  0  0  0  0
   -1.8206   -0.7507   -1.6417 C   0  0  0  0  0  0  0  0  0  0  0  0
   -1.8133   -1.7397   -2.8009 C   0  0  0  0  0  0  0  0  0  0  0  0
   -0.5191   -0.6394    1.5038 C   0  0  0  0  0  0  0  0  0  0  0  0
   -1.9361   -1.1768    1.6891 C   0  0  0  0  0  0  0  0  0  0  0  0
   -2.0879   -1.8236    3.0611 C   0  0  0  0  0  0  0  0  0  0  0  0
   -1.2855    1.4606    0.3124 C   0  0  0  0  0  0  0  0  0  0  0  0
   -0.9098    2.7358   -0.4547 C   0  0  0  0  0  0  0  0  0  0  0  0
   -0.9318    2.6583   -1.9699 C   0  0  0  0  0  0  0  0  0  0  0  0
    4.6779   -1.1948    1.4444 H   0  0  0  0  0  0  0  0  0  0  0  0
    4.6734   -1.4101   -0.3172 H   0  0  0  0  0  0  0  0  0  0  0  0
    5.7261   -0.1935    0.4255 H   0  0  0  0  0  0  0  0  0  0  0  0
    3.7577    0.9020   -0.5928 H   0  0  0  0  0  0  0  0  0  0  0  0
    3.7598    1.1162    1.1596 H   0  0  0  0  0  0  0  0  0  0  0  0
    2.1737   -0.7899    1.3972 H   0  0  0  0  0  0  0  0  0  0  0  0
    2.1571   -1.0047   -0.3576 H   0  0  0  0  0  0  0  0  0  0  0  0
    1.1945    1.4773    1.1984 H   0  0  0  0  0  0  0  0  0  0  0  0
    1.3376    1.4015   -0.5799 H   0  0  0  0  0  0  0  0  0  0  0  0
    0.0057   -1.5797   -0.8261 H   0  0  0  0  0  0  0  0  0  0  0  0
    0.2346   -0.1322   -1.8089 H   0  0  0  0  0  0  0  0  0  0  0  0
   -2.5435   -1.0959   -0.9025 H   0  0  0  0  0  0  0  0  0  0  0  0
   -2.1917    0.2023   -2.0236 H   0  0  0  0  0  0  0  0  0  0  0  0
   -1.4952   -2.7327   -2.4672 H   0  0  0  0  0  0  0  0  0  0  0  0
   -1.1362   -1.4087   -3.5949 H   0  0  0  0  0  0  0  0  0  0  0  0
   -2.8173   -1.8308   -3.2273 H   0  0  0  0  0  0  0  0  0  0  0  0
    0.1690   -1.4872    1.4290 H   0  0  0  0  0  0  0  0  0  0  0  0
   -0.2249   -0.0253    2.3636 H   0  0  0  0  0  0  0  0  0  0  0  0
   -2.6902   -0.3911    1.5965 H   0  0  0  0  0  0  0  0  0  0  0  0
   -2.1475   -1.9456    0.9412 H   0  0  0  0  0  0  0  0  0  0  0  0
   -3.0972   -2.2306    3.1781 H   0  0  0  0  0  0  0  0  0  0  0  0
   -1.9218   -1.0932    3.8594 H   0  0  0  0  0  0  0  0  0  0  0  0
   -1.3738   -2.6434    3.1898 H   0  0  0  0  0  0  0  0  0  0  0  0
   -2.2807    1.1128    0.0250 H   0  0  0  0  0  0  0  0  0  0  0  0
   -1.3333    1.7309    1.3750 H   0  0  0  0  0  0  0  0  0  0  0  0
   -1.6388    3.5047   -0.1646 H   0  0  0  0  0  0  0  0  0  0  0  0
    0.0556    3.1292   -0.1201 H   0  0  0  0  0  0  0  0  0  0  0  0
   -0.1920    1.9583   -2.3606 H   0  0  0  0  0  0  0  0  0  0  0  0
   -0.7005    3.6421   -2.3926 H   0  0  0  0  0  0  0  0  0  0  0  0
   -1.9227    2.3751   -2.3354 H   0  0  0  0  0  0  0  0  0  0  0  0
  1  2  1  0
  2  3  1  0
  3  4  1  0
  4  5  1  0
  5  6  1  0
  6  7  1  0
  7  8  1  0
  5  9  1  0
  9 10  1  0
 10 11  1  0
  5 12  1  0
 12 13  1  0
 13 14  1  0
  1 15  1  0
  1 16  1  0
  1 17  1  0
  2 18  1  0
  2 19  1  0
  3 20  1  0
  3 21  1  0
  4 22  1  0
  4 23  1  0
  6 24  1  0
  6 25  1  0
  7 26  1  0
  7 27  1  0
  8 28  1  0
  8 29  1  0
  8 30  1  0
  9 31  1  0
  9 32  1  0
 10 33  1  0
 10 34  1  0
 11 35  1  0
 11 36  1  0
 11 37  1  0
 12 38  1  0
 12 39  1  0
 13 40  1  0
 13 41  1  0
 14 42  1  0
 14 43  1  0
 14 44  1  0
M  CHG  1   5   1
M  END
