343_CCCCCCCC[N+](CCC)(CCC)CCCCCC
     RDKit          3D

 65 64  0  0  0  0  0  0  0  0999 V2000
    7.6808    1.7870   -0.4412 C   0  0  0  0  0  0  0  0  0  0  0  0
    7.0411    1.1263    0.7799 C   0  0  0  0  0  0  0  0  0  0  0  0
    5.7970    0.2965    0.4259 C   0  0  0  0  0  0  0  0  0  0  0  0
    4.5932    1.1745    0.0416 C   0  0  0  0  0  0  0  0  0  0  0  0
    3.3362    0.3460   -0.2725 C   0  0  0  0  0  0  0  0  0  0  0  0
    2.6195   -0.1427    0.9990 C   0  0  0  0  0  0  0  0  0  0  0  0
    1.4201   -1.0580    0.6942 C   0  0  0  0  0  0  0  0  0  0  0  0
    0.2407   -0.2971    0.0437 C   0  0  0  0  0  0  0  0  0  0  0  0
   -1.0585   -1.0513   -0.0833 N   0  0  0  0  0  0  0  0  0  0  0  0
   -0.8420   -2.3584   -0.8154 C   0  0  0  0  0  0  0  0  0  0  0  0
   -0.5054   -3.6122    0.0383 C   0  0  0  0  0  0  0  0  0  0  0  0
   -0.1035   -4.7852   -0.8527 C   0  0  0  0  0  0  0  0  0  0  0  0
   -1.6720   -1.2395    1.2779 C   0  0  0  0  0  0  0  0  0  0  0  0
   -3.1325   -1.7554    1.2694 C   0  0  0  0  0  0  0  0  0  0  0  0
   -3.5510   -2.2530    2.6503 C   0  0  0  0  0  0  0  0  0  0  0  0
   -1.9626   -0.2257   -0.9670 C   0  0  0  0  0  0  0  0  0  0  0  0
   -2.2882    1.2069   -0.4690 C   0  0  0  0  0  0  0  0  0  0  0  0
   -3.3402    1.8685   -1.3697 C   0  0  0  0  0  0  0  0  0  0  0  0
   -3.6564    3.2946   -0.8942 C   0  0  0  0  0  0  0  0  0  0  0  0
   -4.6191    4.0316   -1.8379 C   0  0  0  0  0  0  0  0  0  0  0  0
   -6.0432    3.4797   -1.7790 C   0  0  0  0  0  0  0  0  0  0  0  0
    7.8941    1.0306   -1.2262 H   0  0  0  0  0  0  0  0  0  0  0  0
    7.0187    2.5749   -0.8556 H   0  0  0  0  0  0  0  0  0  0  0  0
    8.6379    2.2642   -0.1425 H   0  0  0  0  0  0  0  0  0  0  0  0
    7.7934    0.4506    1.2416 H   0  0  0  0  0  0  0  0  0  0  0  0
    6.7823    1.9032    1.5318 H   0  0  0  0  0  0  0  0  0  0  0  0
    5.5399   -0.3150    1.3156 H   0  0  0  0  0  0  0  0  0  0  0  0
    6.0367   -0.4036   -0.4043 H   0  0  0  0  0  0  0  0  0  0  0  0
    4.3738    1.9019    0.8538 H   0  0  0  0  0  0  0  0  0  0  0  0
    4.8485    1.7552   -0.8699 H   0  0  0  0  0  0  0  0  0  0  0  0
    3.6041   -0.5175   -0.9201 H   0  0  0  0  0  0  0  0  0  0  0  0
    2.6440    0.9966   -0.8475 H   0  0  0  0  0  0  0  0  0  0  0  0
    3.3302   -0.7239    1.6225 H   0  0  0  0  0  0  0  0  0  0  0  0
    2.2851    0.7292    1.6028 H   0  0  0  0  0  0  0  0  0  0  0  0
    1.1023   -1.4929    1.6624 H   0  0  0  0  0  0  0  0  0  0  0  0
    1.7680   -1.8737    0.0260 H   0  0  0  0  0  0  0  0  0  0  0  0
    0.5789    0.0359   -0.9630 H   0  0  0  0  0  0  0  0  0  0  0  0
    0.0888    0.6236    0.6482 H   0  0  0  0  0  0  0  0  0  0  0  0
   -1.7514   -2.6439   -1.3933 H   0  0  0  0  0  0  0  0  0  0  0  0
   -0.0511   -2.2288   -1.5897 H   0  0  0  0  0  0  0  0  0  0  0  0
    0.3176   -3.4371    0.7522 H   0  0  0  0  0  0  0  0  0  0  0  0
   -1.3925   -3.9285    0.6245 H   0  0  0  0  0  0  0  0  0  0  0  0
    0.8167   -4.5377   -1.4237 H   0  0  0  0  0  0  0  0  0  0  0  0
    0.0999   -5.6783   -0.2247 H   0  0  0  0  0  0  0  0  0  0  0  0
   -0.9219   -5.0301   -1.5629 H   0  0  0  0  0  0  0  0  0  0  0  0
   -1.6527   -0.2892    1.8543 H   0  0  0  0  0  0  0  0  0  0  0  0
   -1.0600   -1.9283    1.8933 H   0  0  0  0  0  0  0  0  0  0  0  0
   -3.2636   -2.5819    0.5417 H   0  0  0  0  0  0  0  0  0  0  0  0
   -3.8229   -0.9342    0.9825 H   0  0  0  0  0  0  0  0  0  0  0  0
   -2.9239   -3.1180    2.9547 H   0  0  0  0  0  0  0  0  0  0  0  0
   -4.6124   -2.5781    2.6232 H   0  0  0  0  0  0  0  0  0  0  0  0
   -3.4462   -1.4405    3.4006 H   0  0  0  0  0  0  0  0  0  0  0  0
   -1.5079   -0.1252   -1.9807 H   0  0  0  0  0  0  0  0  0  0  0  0
   -2.9258   -0.7538   -1.1442 H   0  0  0  0  0  0  0  0  0  0  0  0
   -2.6833    1.1907    0.5660 H   0  0  0  0  0  0  0  0  0  0  0  0
   -1.3738    1.8358   -0.4949 H   0  0  0  0  0  0  0  0  0  0  0  0
   -2.9599    1.9029   -2.4144 H   0  0  0  0  0  0  0  0  0  0  0  0
   -4.2669    1.2561   -1.3490 H   0  0  0  0  0  0  0  0  0  0  0  0
   -2.7098    3.8766   -0.8484 H   0  0  0  0  0  0  0  0  0  0  0  0
   -4.0841    3.2660    0.1322 H   0  0  0  0  0  0  0  0  0  0  0  0
   -4.2433    3.9830   -2.8830 H   0  0  0  0  0  0  0  0  0  0  0  0
   -4.6490    5.1026   -1.5416 H   0  0  0  0  0  0  0  0  0  0  0  0
   -6.4145    3.4714   -0.7322 H   0  0  0  0  0  0  0  0  0  0  0  0
   -6.0846    2.4519   -2.1950 H   0  0  0  0  0  0  0  0  0  0  0  0
   -6.7135    4.1243   -2.3858 H   0  0  0  0  0  0  0  0  0  0  0  0
  1  2  1  0
  2  3  1  0
  3  4  1  0
  4  5  1  0
  5  6  1  0
  6  7  1  0
  7  8  1  0
  8  9  1  0
  9 10  1  0
 10 11  1  0
 11 12  1  0
  9 13  1  0
 13 14  1  0
 14 15  1  0
  9 16  1  0
 16 17  1  0
 17 18  1  0
 18 19  1  0
 19 20  1  0
 20 21  1  0
  1 22  1  0
  1 23  1  0
  1 24  1  0
  2 25  1  0
  2 26  1  0
  3 27  1  0
  3 28  1  0
  4 29  1  0
  4 30  1  0
  5 31  1  0
  5 32  1  0
  6 33  1  0
  6 34  1  0
  7 35  1  0
  7 36  1  0
  8 37  1  0
  8 38  1  0
 10 39  1  0
 10 40  1  0
 11 41  1  0
 11 42  1  0
 12 43  1  0
 12 44  1  0
 12 45  1  0
 13 46  1  0
 13 47  1  0
 14 48  1  0
 14 49  1  0
 15 50  1  0
 15 51  1  0
 15 52  1  0
 16 53  1  0
 16 54  1  0
 17 55  1  0
 17 56  1  0
 18 57  1  0
 18 58  1  0
 19 59  1  0
 19 60  1  0
 20 61  1  0
 20 62  1  0
 21 63  1  0
 21 64  1  0
 21 65  1  0
M  CHG  1   9   1
M  END
