354_CCCCCC[N+](CC)(CCCCCC)CCCCCC
     RDKit          3D

 65 64  0  0  0  0  0  0  0  0999 V2000
    6.2610   -3.2387    0.0548 C   0  0  0  0  0  0  0  0  0  0  0  0
    5.1514   -2.3658   -0.5228 C   0  0  0  0  0  0  0  0  0  0  0  0
    4.9173   -1.1230    0.3487 C   0  0  0  0  0  0  0  0  0  0  0  0
    3.8772   -0.1625   -0.2503 C   0  0  0  0  0  0  0  0  0  0  0  0
    2.4481   -0.7342   -0.2169 C   0  0  0  0  0  0  0  0  0  0  0  0
    1.3858    0.3077   -0.6823 C   0  0  0  0  0  0  0  0  0  0  0  0
    0.2259    0.5670    0.2506 N   0  0  0  0  0  0  0  0  0  0  0  0
    0.7236    0.8660    1.6565 C   0  0  0  0  0  0  0  0  0  0  0  0
    0.4206   -0.1515    2.7713 C   0  0  0  0  0  0  0  0  0  0  0  0
   -0.4030    1.8388   -0.2724 C   0  0  0  0  0  0  0  0  0  0  0  0
   -1.7716    2.2208    0.3592 C   0  0  0  0  0  0  0  0  0  0  0  0
   -2.1549    3.6640    0.0060 C   0  0  0  0  0  0  0  0  0  0  0  0
   -3.5188    4.0361    0.5999 C   0  0  0  0  0  0  0  0  0  0  0  0
   -3.9151    5.4654    0.2121 C   0  0  0  0  0  0  0  0  0  0  0  0
   -5.2651    5.8451    0.8129 C   0  0  0  0  0  0  0  0  0  0  0  0
   -0.8241   -0.5143    0.1259 C   0  0  0  0  0  0  0  0  0  0  0  0
   -0.3504   -1.9882    0.1405 C   0  0  0  0  0  0  0  0  0  0  0  0
   -1.5218   -2.9834    0.2408 C   0  0  0  0  0  0  0  0  0  0  0  0
   -2.5161   -2.9469   -0.9378 C   0  0  0  0  0  0  0  0  0  0  0  0
   -1.8905   -3.1672   -2.3268 C   0  0  0  0  0  0  0  0  0  0  0  0
   -1.1868   -4.5181   -2.4571 C   0  0  0  0  0  0  0  0  0  0  0  0
    7.2214   -2.6809    0.0723 H   0  0  0  0  0  0  0  0  0  0  0  0
    6.0017   -3.5551    1.0868 H   0  0  0  0  0  0  0  0  0  0  0  0
    6.3879   -4.1464   -0.5711 H   0  0  0  0  0  0  0  0  0  0  0  0
    4.2238   -2.9745   -0.5807 H   0  0  0  0  0  0  0  0  0  0  0  0
    5.4382   -2.0549   -1.5508 H   0  0  0  0  0  0  0  0  0  0  0  0
    5.8773   -0.5699    0.4468 H   0  0  0  0  0  0  0  0  0  0  0  0
    4.6011   -1.4298    1.3699 H   0  0  0  0  0  0  0  0  0  0  0  0
    4.1570    0.0952   -1.2954 H   0  0  0  0  0  0  0  0  0  0  0  0
    3.9025    0.7751    0.3484 H   0  0  0  0  0  0  0  0  0  0  0  0
    2.2522   -1.1107    0.7997 H   0  0  0  0  0  0  0  0  0  0  0  0
    2.4094   -1.6056   -0.9030 H   0  0  0  0  0  0  0  0  0  0  0  0
    1.0040   -0.0152   -1.6791 H   0  0  0  0  0  0  0  0  0  0  0  0
    1.9207    1.2636   -0.8962 H   0  0  0  0  0  0  0  0  0  0  0  0
    0.3411    1.8343    2.0405 H   0  0  0  0  0  0  0  0  0  0  0  0
    1.8203    1.0427    1.6652 H   0  0  0  0  0  0  0  0  0  0  0  0
    1.0446   -1.0594    2.6872 H   0  0  0  0  0  0  0  0  0  0  0  0
    0.6956    0.3061    3.7459 H   0  0  0  0  0  0  0  0  0  0  0  0
   -0.6541   -0.4075    2.8425 H   0  0  0  0  0  0  0  0  0  0  0  0
    0.2996    2.6949   -0.1315 H   0  0  0  0  0  0  0  0  0  0  0  0
   -0.5684    1.7706   -1.3743 H   0  0  0  0  0  0  0  0  0  0  0  0
   -2.5643    1.5485   -0.0361 H   0  0  0  0  0  0  0  0  0  0  0  0
   -1.7553    2.1121    1.4634 H   0  0  0  0  0  0  0  0  0  0  0  0
   -2.1926    3.7719   -1.1010 H   0  0  0  0  0  0  0  0  0  0  0  0
   -1.3825    4.3589    0.4041 H   0  0  0  0  0  0  0  0  0  0  0  0
   -4.2915    3.3285    0.2246 H   0  0  0  0  0  0  0  0  0  0  0  0
   -3.4706    3.9538    1.7086 H   0  0  0  0  0  0  0  0  0  0  0  0
   -3.1462    6.1821    0.5755 H   0  0  0  0  0  0  0  0  0  0  0  0
   -3.9789    5.5485   -0.8950 H   0  0  0  0  0  0  0  0  0  0  0  0
   -5.2152    5.8176    1.9226 H   0  0  0  0  0  0  0  0  0  0  0  0
   -6.0550    5.1461    0.4629 H   0  0  0  0  0  0  0  0  0  0  0  0
   -5.5360    6.8743    0.4950 H   0  0  0  0  0  0  0  0  0  0  0  0
   -1.6095   -0.3866    0.8991 H   0  0  0  0  0  0  0  0  0  0  0  0
   -1.3519   -0.3954   -0.8475 H   0  0  0  0  0  0  0  0  0  0  0  0
    0.3004   -2.1916    1.0040 H   0  0  0  0  0  0  0  0  0  0  0  0
    0.2272   -2.2184   -0.7744 H   0  0  0  0  0  0  0  0  0  0  0  0
   -1.1097   -4.0105    0.3382 H   0  0  0  0  0  0  0  0  0  0  0  0
   -2.0838   -2.7838    1.1790 H   0  0  0  0  0  0  0  0  0  0  0  0
   -3.0556   -1.9761   -0.9370 H   0  0  0  0  0  0  0  0  0  0  0  0
   -3.2853   -3.7310   -0.7662 H   0  0  0  0  0  0  0  0  0  0  0  0
   -1.1827   -2.3481   -2.5738 H   0  0  0  0  0  0  0  0  0  0  0  0
   -2.7047   -3.1253   -3.0822 H   0  0  0  0  0  0  0  0  0  0  0  0
   -0.2736   -4.5474   -1.8266 H   0  0  0  0  0  0  0  0  0  0  0  0
   -0.8819   -4.6754   -3.5134 H   0  0  0  0  0  0  0  0  0  0  0  0
   -1.8693   -5.3424   -2.1581 H   0  0  0  0  0  0  0  0  0  0  0  0
  1  2  1  0
  2  3  1  0
  3  4  1  0
  4  5  1  0
  5  6  1  0
  6  7  1  0
  7  8  1  0
  8  9  1  0
  7 10  1  0
 10 11  1  0
 11 12  1  0
 12 13  1  0
 13 14  1  0
 14 15  1  0
  7 16  1  0
 16 17  1  0
 17 18  1  0
 18 19  1  0
 19 20  1  0
 20 21  1  0
  1 22  1  0
  1 23  1  0
  1 24  1  0
  2 25  1  0
  2 26  1  0
  3 27  1  0
  3 28  1  0
  4 29  1  0
  4 30  1  0
  5 31  1  0
  5 32  1  0
  6 33  1  0
  6 34  1  0
  8 35  1  0
  8 36  1  0
  9 37  1  0
  9 38  1  0
  9 39  1  0
 10 40  1  0
 10 41  1  0
 11 42  1  0
 11 43  1  0
 12 44  1  0
 12 45  1  0
 13 46  1  0
 13 47  1  0
 14 48  1  0
 14 49  1  0
 15 50  1  0
 15 51  1  0
 15 52  1  0
 16 53  1  0
 16 54  1  0
 17 55  1  0
 17 56  1  0
 18 57  1  0
 18 58  1  0
 19 59  1  0
 19 60  1  0
 20 61  1  0
 20 62  1  0
 21 63  1  0
 21 64  1  0
 21 65  1  0
M  CHG  1   7   1
M  END
