356_CCCCCC[N+](CCCC)(CCCC)CCCCCC
     RDKit          3D

 65 64  0  0  0  0  0  0  0  0999 V2000
    3.8779   -3.6353    1.8253 C   0  0  0  0  0  0  0  0  0  0  0  0
    3.2117   -2.3379    1.3769 C   0  0  0  0  0  0  0  0  0  0  0  0
    3.3853   -2.1210   -0.1345 C   0  0  0  0  0  0  0  0  0  0  0  0
    2.8569   -0.7543   -0.5992 C   0  0  0  0  0  0  0  0  0  0  0  0
    1.3201   -0.6836   -0.6015 C   0  0  0  0  0  0  0  0  0  0  0  0
    0.8111    0.6912   -1.1199 C   0  0  0  0  0  0  0  0  0  0  0  0
   -0.4604    1.2358   -0.5195 N   0  0  0  0  0  0  0  0  0  0  0  0
   -0.2215    1.9592    0.7887 C   0  0  0  0  0  0  0  0  0  0  0  0
    0.6875    1.3189    1.8809 C   0  0  0  0  0  0  0  0  0  0  0  0
    0.0575    0.2834    2.8393 C   0  0  0  0  0  0  0  0  0  0  0  0
   -1.2511    0.7486    3.4773 C   0  0  0  0  0  0  0  0  0  0  0  0
   -1.0864    2.2573   -1.4579 C   0  0  0  0  0  0  0  0  0  0  0  0
   -0.1566    3.1656   -2.3250 C   0  0  0  0  0  0  0  0  0  0  0  0
    0.6011    4.2634   -1.5644 C   0  0  0  0  0  0  0  0  0  0  0  0
    1.1697    5.3081   -2.5222 C   0  0  0  0  0  0  0  0  0  0  0  0
   -1.5068    0.1813   -0.2799 C   0  0  0  0  0  0  0  0  0  0  0  0
   -1.7938   -0.7881   -1.4655 C   0  0  0  0  0  0  0  0  0  0  0  0
   -3.2728   -1.2006   -1.5446 C   0  0  0  0  0  0  0  0  0  0  0  0
   -3.7764   -1.9839   -0.3156 C   0  0  0  0  0  0  0  0  0  0  0  0
   -3.1573   -3.3917   -0.1781 C   0  0  0  0  0  0  0  0  0  0  0  0
   -2.0820   -3.4615    0.9075 C   0  0  0  0  0  0  0  0  0  0  0  0
    4.9689   -3.6012    1.6187 H   0  0  0  0  0  0  0  0  0  0  0  0
    3.7281   -3.7721    2.9170 H   0  0  0  0  0  0  0  0  0  0  0  0
    3.4303   -4.5020    1.2937 H   0  0  0  0  0  0  0  0  0  0  0  0
    2.1338   -2.3934    1.6366 H   0  0  0  0  0  0  0  0  0  0  0  0
    3.6657   -1.4904    1.9351 H   0  0  0  0  0  0  0  0  0  0  0  0
    4.4688   -2.1699   -0.3811 H   0  0  0  0  0  0  0  0  0  0  0  0
    2.8756   -2.9349   -0.6955 H   0  0  0  0  0  0  0  0  0  0  0  0
    3.2841    0.0460    0.0427 H   0  0  0  0  0  0  0  0  0  0  0  0
    3.2189   -0.5758   -1.6356 H   0  0  0  0  0  0  0  0  0  0  0  0
    0.9373   -0.9168    0.3999 H   0  0  0  0  0  0  0  0  0  0  0  0
    0.9644   -1.4863   -1.2784 H   0  0  0  0  0  0  0  0  0  0  0  0
    1.6189    1.4475   -1.0065 H   0  0  0  0  0  0  0  0  0  0  0  0
    0.6829    0.5444   -2.2143 H   0  0  0  0  0  0  0  0  0  0  0  0
    0.2584    2.9311    0.5926 H   0  0  0  0  0  0  0  0  0  0  0  0
   -1.1885    2.2532    1.2517 H   0  0  0  0  0  0  0  0  0  0  0  0
    1.0218    2.1563    2.5343 H   0  0  0  0  0  0  0  0  0  0  0  0
    1.6322    0.9343    1.4612 H   0  0  0  0  0  0  0  0  0  0  0  0
   -0.0879   -0.7034    2.3640 H   0  0  0  0  0  0  0  0  0  0  0  0
    0.7870    0.1050    3.6593 H   0  0  0  0  0  0  0  0  0  0  0  0
   -1.5227    0.0605    4.3055 H   0  0  0  0  0  0  0  0  0  0  0  0
   -1.1411    1.7736    3.8907 H   0  0  0  0  0  0  0  0  0  0  0  0
   -2.0766    0.7294    2.7360 H   0  0  0  0  0  0  0  0  0  0  0  0
   -1.7919    2.9218   -0.9065 H   0  0  0  0  0  0  0  0  0  0  0  0
   -1.7481    1.7641   -2.1989 H   0  0  0  0  0  0  0  0  0  0  0  0
    0.5515    2.5838   -2.9474 H   0  0  0  0  0  0  0  0  0  0  0  0
   -0.8246    3.6740   -3.0560 H   0  0  0  0  0  0  0  0  0  0  0  0
    1.4557    3.8207   -1.0123 H   0  0  0  0  0  0  0  0  0  0  0  0
   -0.0814    4.7738   -0.8508 H   0  0  0  0  0  0  0  0  0  0  0  0
    0.3494    5.8191   -3.0702 H   0  0  0  0  0  0  0  0  0  0  0  0
    1.8566    4.8290   -3.2522 H   0  0  0  0  0  0  0  0  0  0  0  0
    1.7375    6.0697   -1.9472 H   0  0  0  0  0  0  0  0  0  0  0  0
   -1.2545   -0.4455    0.5863 H   0  0  0  0  0  0  0  0  0  0  0  0
   -2.4598    0.6794    0.0163 H   0  0  0  0  0  0  0  0  0  0  0  0
   -1.5086   -0.3523   -2.4428 H   0  0  0  0  0  0  0  0  0  0  0  0
   -1.1935   -1.7102   -1.3650 H   0  0  0  0  0  0  0  0  0  0  0  0
   -3.8940   -0.2865   -1.6673 H   0  0  0  0  0  0  0  0  0  0  0  0
   -3.4277   -1.8164   -2.4574 H   0  0  0  0  0  0  0  0  0  0  0  0
   -3.6376   -1.3884    0.6124 H   0  0  0  0  0  0  0  0  0  0  0  0
   -4.8751   -2.1050   -0.4374 H   0  0  0  0  0  0  0  0  0  0  0  0
   -3.9609   -4.1086    0.0993 H   0  0  0  0  0  0  0  0  0  0  0  0
   -2.7320   -3.7407   -1.1440 H   0  0  0  0  0  0  0  0  0  0  0  0
   -1.2096   -2.8296    0.6502 H   0  0  0  0  0  0  0  0  0  0  0  0
   -1.7297   -4.5094    1.0103 H   0  0  0  0  0  0  0  0  0  0  0  0
   -2.4959   -3.1332    1.8846 H   0  0  0  0  0  0  0  0  0  0  0  0
  1  2  1  0
  2  3  1  0
  3  4  1  0
  4  5  1  0
  5  6  1  0
  6  7  1  0
  7  8  1  0
  8  9  1  0
  9 10  1  0
 10 11  1  0
  7 12  1  0
 12 13  1  0
 13 14  1  0
 14 15  1  0
  7 16  1  0
 16 17  1  0
 17 18  1  0
 18 19  1  0
 19 20  1  0
 20 21  1  0
  1 22  1  0
  1 23  1  0
  1 24  1  0
  2 25  1  0
  2 26  1  0
  3 27  1  0
  3 28  1  0
  4 29  1  0
  4 30  1  0
  5 31  1  0
  5 32  1  0
  6 33  1  0
  6 34  1  0
  8 35  1  0
  8 36  1  0
  9 37  1  0
  9 38  1  0
 10 39  1  0
 10 40  1  0
 11 41  1  0
 11 42  1  0
 11 43  1  0
 12 44  1  0
 12 45  1  0
 13 46  1  0
 13 47  1  0
 14 48  1  0
 14 49  1  0
 15 50  1  0
 15 51  1  0
 15 52  1  0
 16 53  1  0
 16 54  1  0
 17 55  1  0
 17 56  1  0
 18 57  1  0
 18 58  1  0
 19 59  1  0
 19 60  1  0
 20 61  1  0
 20 62  1  0
 21 63  1  0
 21 64  1  0
 21 65  1  0
M  CHG  1   7   1
M  END
