416_CCCCCC[N+](CCC)(CCC)CCC
     RDKit          3D

 50 49  0  0  0  0  0  0  0  0999 V2000
    5.5031    1.2565    0.4097 C   0  0  0  0  0  0  0  0  0  0  0  0
    4.5062    0.7484    1.4508 C   0  0  0  0  0  0  0  0  0  0  0  0
    3.5538   -0.3197    0.8915 C   0  0  0  0  0  0  0  0  0  0  0  0
    2.5518    0.2565   -0.1251 C   0  0  0  0  0  0  0  0  0  0  0  0
    1.5022   -0.7845   -0.5634 C   0  0  0  0  0  0  0  0  0  0  0  0
    0.3289   -0.9598    0.4505 C   0  0  0  0  0  0  0  0  0  0  0  0
   -0.9654   -0.2132    0.1954 N   0  0  0  0  0  0  0  0  0  0  0  0
   -1.8676   -0.9928   -0.7213 C   0  0  0  0  0  0  0  0  0  0  0  0
   -1.3695   -1.1722   -2.1713 C   0  0  0  0  0  0  0  0  0  0  0  0
   -2.4648   -1.7685   -3.0525 C   0  0  0  0  0  0  0  0  0  0  0  0
   -0.6892    1.1815   -0.3141 C   0  0  0  0  0  0  0  0  0  0  0  0
   -1.9255    2.0238   -0.7281 C   0  0  0  0  0  0  0  0  0  0  0  0
   -1.4953    3.3897   -1.2603 C   0  0  0  0  0  0  0  0  0  0  0  0
   -1.6763   -0.0627    1.5193 C   0  0  0  0  0  0  0  0  0  0  0  0
   -2.0052   -1.3794    2.2891 C   0  0  0  0  0  0  0  0  0  0  0  0
   -3.5012   -1.6993    2.2895 C   0  0  0  0  0  0  0  0  0  0  0  0
    6.2371    1.9300    0.9002 H   0  0  0  0  0  0  0  0  0  0  0  0
    4.9834    1.8327   -0.3836 H   0  0  0  0  0  0  0  0  0  0  0  0
    6.0539    0.4077   -0.0485 H   0  0  0  0  0  0  0  0  0  0  0  0
    3.9245    1.6037    1.8583 H   0  0  0  0  0  0  0  0  0  0  0  0
    5.0792    0.3016    2.2921 H   0  0  0  0  0  0  0  0  0  0  0  0
    3.0026   -0.7627    1.7475 H   0  0  0  0  0  0  0  0  0  0  0  0
    4.1436   -1.1353    0.4183 H   0  0  0  0  0  0  0  0  0  0  0  0
    3.1087    0.5801   -1.0301 H   0  0  0  0  0  0  0  0  0  0  0  0
    2.0591    1.1534    0.3008 H   0  0  0  0  0  0  0  0  0  0  0  0
    2.0170   -1.7643   -0.6800 H   0  0  0  0  0  0  0  0  0  0  0  0
    1.1588   -0.5426   -1.5840 H   0  0  0  0  0  0  0  0  0  0  0  0
    0.1347   -2.0536    0.4791 H   0  0  0  0  0  0  0  0  0  0  0  0
    0.7213   -0.7205    1.4637 H   0  0  0  0  0  0  0  0  0  0  0  0
   -2.0302   -2.0177   -0.3228 H   0  0  0  0  0  0  0  0  0  0  0  0
   -2.8807   -0.5335   -0.7444 H   0  0  0  0  0  0  0  0  0  0  0  0
   -0.5133   -1.8777   -2.1874 H   0  0  0  0  0  0  0  0  0  0  0  0
   -1.0634   -0.2078   -2.6225 H   0  0  0  0  0  0  0  0  0  0  0  0
   -2.0739   -1.9208   -4.0807 H   0  0  0  0  0  0  0  0  0  0  0  0
   -3.3359   -1.0810   -3.1040 H   0  0  0  0  0  0  0  0  0  0  0  0
   -2.7948   -2.7498   -2.6493 H   0  0  0  0  0  0  0  0  0  0  0  0
   -0.1374    1.7595    0.4607 H   0  0  0  0  0  0  0  0  0  0  0  0
   -0.0295    1.1721   -1.1992 H   0  0  0  0  0  0  0  0  0  0  0  0
   -2.4977    1.5214   -1.5342 H   0  0  0  0  0  0  0  0  0  0  0  0
   -2.6008    2.2092    0.1294 H   0  0  0  0  0  0  0  0  0  0  0  0
   -0.8542    3.2709   -2.1598 H   0  0  0  0  0  0  0  0  0  0  0  0
   -0.9344    3.9490   -0.4815 H   0  0  0  0  0  0  0  0  0  0  0  0
   -2.3929    3.9797   -1.5426 H   0  0  0  0  0  0  0  0  0  0  0  0
   -2.6262    0.4959    1.3973 H   0  0  0  0  0  0  0  0  0  0  0  0
   -1.0657    0.5719    2.2032 H   0  0  0  0  0  0  0  0  0  0  0  0
   -1.4635   -2.2641    1.9089 H   0  0  0  0  0  0  0  0  0  0  0  0
   -1.6896   -1.2592    3.3486 H   0  0  0  0  0  0  0  0  0  0  0  0
   -3.8766   -1.8276    1.2533 H   0  0  0  0  0  0  0  0  0  0  0  0
   -3.6801   -2.6416    2.8491 H   0  0  0  0  0  0  0  0  0  0  0  0
   -4.0692   -0.8832    2.7847 H   0  0  0  0  0  0  0  0  0  0  0  0
  1  2  1  0
  2  3  1  0
  3  4  1  0
  4  5  1  0
  5  6  1  0
  6  7  1  0
  7  8  1  0
  8  9  1  0
  9 10  1  0
  7 11  1  0
 11 12  1  0
 12 13  1  0
  7 14  1  0
 14 15  1  0
 15 16  1  0
  1 17  1  0
  1 18  1  0
  1 19  1  0
  2 20  1  0
  2 21  1  0
  3 22  1  0
  3 23  1  0
  4 24  1  0
  4 25  1  0
  5 26  1  0
  5 27  1  0
  6 28  1  0
  6 29  1  0
  8 30  1  0
  8 31  1  0
  9 32  1  0
  9 33  1  0
 10 34  1  0
 10 35  1  0
 10 36  1  0
 11 37  1  0
 11 38  1  0
 12 39  1  0
 12 40  1  0
 13 41  1  0
 13 42  1  0
 13 43  1  0
 14 44  1  0
 14 45  1  0
 15 46  1  0
 15 47  1  0
 16 48  1  0
 16 49  1  0
 16 50  1  0
M  CHG  1   7   1
M  END
