427_CCCC[N+](CCC)(CCCC)CCCC
     RDKit          3D

 50 49  0  0  0  0  0  0  0  0999 V2000
    3.7728   -2.9279    0.0497 C   0  0  0  0  0  0  0  0  0  0  0  0
    4.0286   -1.4313   -0.0481 C   0  0  0  0  0  0  0  0  0  0  0  0
    2.8058   -0.5769    0.3076 C   0  0  0  0  0  0  0  0  0  0  0  0
    1.7011   -0.6603   -0.7561 C   0  0  0  0  0  0  0  0  0  0  0  0
    0.3220    0.0021   -0.3315 N   0  0  0  0  0  0  0  0  0  0  0  0
   -0.5298    0.1455   -1.6215 C   0  0  0  0  0  0  0  0  0  0  0  0
   -1.1541   -1.0711   -2.3141 C   0  0  0  0  0  0  0  0  0  0  0  0
   -0.3298   -2.3199   -2.5395 C   0  0  0  0  0  0  0  0  0  0  0  0
    0.6887    1.4610    0.1471 C   0  0  0  0  0  0  0  0  0  0  0  0
   -0.4868    2.3331    0.5847 C   0  0  0  0  0  0  0  0  0  0  0  0
    0.0076    3.7237    1.0002 C   0  0  0  0  0  0  0  0  0  0  0  0
   -1.1408    4.6093    1.4579 C   0  0  0  0  0  0  0  0  0  0  0  0
   -0.2514   -0.8179    0.8550 C   0  0  0  0  0  0  0  0  0  0  0  0
   -1.7243   -1.2244    0.8858 C   0  0  0  0  0  0  0  0  0  0  0  0
   -2.7679   -0.1220    1.0168 C   0  0  0  0  0  0  0  0  0  0  0  0
   -4.1761   -0.7002    1.0706 C   0  0  0  0  0  0  0  0  0  0  0  0
    3.3884   -3.1971    1.0386 H   0  0  0  0  0  0  0  0  0  0  0  0
    4.7053   -3.4784   -0.1118 H   0  0  0  0  0  0  0  0  0  0  0  0
    3.0561   -3.2662   -0.7038 H   0  0  0  0  0  0  0  0  0  0  0  0
    4.3801   -1.1830   -1.0562 H   0  0  0  0  0  0  0  0  0  0  0  0
    4.8410   -1.1759    0.6431 H   0  0  0  0  0  0  0  0  0  0  0  0
    3.1607    0.4568    0.3865 H   0  0  0  0  0  0  0  0  0  0  0  0
    2.4372   -0.8709    1.2958 H   0  0  0  0  0  0  0  0  0  0  0  0
    2.0282   -0.1619   -1.6756 H   0  0  0  0  0  0  0  0  0  0  0  0
    1.4863   -1.7027   -0.9725 H   0  0  0  0  0  0  0  0  0  0  0  0
    0.1121    0.6652   -2.3448 H   0  0  0  0  0  0  0  0  0  0  0  0
   -1.3452    0.8334   -1.4006 H   0  0  0  0  0  0  0  0  0  0  0  0
   -2.0989   -1.3415   -1.8367 H   0  0  0  0  0  0  0  0  0  0  0  0
   -1.4683   -0.7200   -3.3078 H   0  0  0  0  0  0  0  0  0  0  0  0
    0.6214   -2.0896   -3.0279 H   0  0  0  0  0  0  0  0  0  0  0  0
   -0.8738   -3.0073   -3.1969 H   0  0  0  0  0  0  0  0  0  0  0  0
   -0.1513   -2.8566   -1.6041 H   0  0  0  0  0  0  0  0  0  0  0  0
    1.2343    1.9299   -0.6805 H   0  0  0  0  0  0  0  0  0  0  0  0
    1.3628    1.3571    1.0022 H   0  0  0  0  0  0  0  0  0  0  0  0
   -1.2211    2.4600   -0.2139 H   0  0  0  0  0  0  0  0  0  0  0  0
   -0.9884    1.8817    1.4430 H   0  0  0  0  0  0  0  0  0  0  0  0
    0.5184    4.2040    0.1575 H   0  0  0  0  0  0  0  0  0  0  0  0
    0.7369    3.6329    1.8137 H   0  0  0  0  0  0  0  0  0  0  0  0
   -1.8728    4.7482    0.6559 H   0  0  0  0  0  0  0  0  0  0  0  0
   -1.6541    4.1715    2.3200 H   0  0  0  0  0  0  0  0  0  0  0  0
   -0.7659    5.5951    1.7502 H   0  0  0  0  0  0  0  0  0  0  0  0
    0.0068   -0.2818    1.7756 H   0  0  0  0  0  0  0  0  0  0  0  0
    0.3171   -1.7552    0.8833 H   0  0  0  0  0  0  0  0  0  0  0  0
   -1.8365   -1.8650    1.7733 H   0  0  0  0  0  0  0  0  0  0  0  0
   -1.9590   -1.8961    0.0600 H   0  0  0  0  0  0  0  0  0  0  0  0
   -2.5924    0.4446    1.9374 H   0  0  0  0  0  0  0  0  0  0  0  0
   -2.7214    0.5748    0.1796 H   0  0  0  0  0  0  0  0  0  0  0  0
   -4.9114    0.1037    1.1761 H   0  0  0  0  0  0  0  0  0  0  0  0
   -4.2908   -1.3786    1.9220 H   0  0  0  0  0  0  0  0  0  0  0  0
   -4.4072   -1.2540    0.1549 H   0  0  0  0  0  0  0  0  0  0  0  0
  1  2  1  0
  2  3  1  0
  3  4  1  0
  4  5  1  0
  5  6  1  0
  6  7  1  0
  7  8  1  0
  5  9  1  0
  9 10  1  0
 10 11  1  0
 11 12  1  0
  5 13  1  0
 13 14  1  0
 14 15  1  0
 15 16  1  0
  1 17  1  0
  1 18  1  0
  1 19  1  0
  2 20  1  0
  2 21  1  0
  3 22  1  0
  3 23  1  0
  4 24  1  0
  4 25  1  0
  6 26  1  0
  6 27  1  0
  7 28  1  0
  7 29  1  0
  8 30  1  0
  8 31  1  0
  8 32  1  0
  9 33  1  0
  9 34  1  0
 10 35  1  0
 10 36  1  0
 11 37  1  0
 11 38  1  0
 12 39  1  0
 12 40  1  0
 12 41  1  0
 13 42  1  0
 13 43  1  0
 14 44  1  0
 14 45  1  0
 15 46  1  0
 15 47  1  0
 16 48  1  0
 16 49  1  0
 16 50  1  0
M  CHG  1   5   1
M  END
