552_CCCCC[N+](CCCCC)(CCCCC)CCCCC
     RDKit          3D

 65 64  0  0  0  0  0  0  0  0999 V2000
    3.2739    2.5343    2.2316 C   0  0  0  0  0  0  0  0  0  0  0  0
    2.6762    1.3314    2.9614 C   0  0  0  0  0  0  0  0  0  0  0  0
    1.1608    1.4623    3.1991 C   0  0  0  0  0  0  0  0  0  0  0  0
    0.3155    1.5699    1.9171 C   0  0  0  0  0  0  0  0  0  0  0  0
    0.4545    0.3225    1.0035 C   0  0  0  0  0  0  0  0  0  0  0  0
   -0.6051    0.1813   -0.0591 N   0  0  0  0  0  0  0  0  0  0  0  0
   -0.6861    1.4331   -0.8975 C   0  0  0  0  0  0  0  0  0  0  0  0
    0.5821    1.7889   -1.7151 C   0  0  0  0  0  0  0  0  0  0  0  0
    0.4558    3.1515   -2.4178 C   0  0  0  0  0  0  0  0  0  0  0  0
    0.6978    4.3305   -1.4619 C   0  0  0  0  0  0  0  0  0  0  0  0
    0.6601    5.6599   -2.2098 C   0  0  0  0  0  0  0  0  0  0  0  0
   -0.3598   -0.9987   -0.9796 C   0  0  0  0  0  0  0  0  0  0  0  0
    1.1016   -1.5046   -1.1114 C   0  0  0  0  0  0  0  0  0  0  0  0
    1.2562   -2.5883   -2.1924 C   0  0  0  0  0  0  0  0  0  0  0  0
    0.6096   -3.9244   -1.7943 C   0  0  0  0  0  0  0  0  0  0  0  0
    0.9370   -5.0165   -2.8085 C   0  0  0  0  0  0  0  0  0  0  0  0
   -1.9796    0.0077    0.5586 C   0  0  0  0  0  0  0  0  0  0  0  0
   -2.1143   -0.8438    1.8621 C   0  0  0  0  0  0  0  0  0  0  0  0
   -1.8512   -2.3587    1.7587 C   0  0  0  0  0  0  0  0  0  0  0  0
   -2.8787   -3.1283    0.9059 C   0  0  0  0  0  0  0  0  0  0  0  0
   -4.2375   -3.2610    1.5934 C   0  0  0  0  0  0  0  0  0  0  0  0
    2.9381    2.5583    1.1740 H   0  0  0  0  0  0  0  0  0  0  0  0
    4.3815    2.4563    2.2377 H   0  0  0  0  0  0  0  0  0  0  0  0
    2.9827    3.4800    2.7361 H   0  0  0  0  0  0  0  0  0  0  0  0
    2.9050    0.4010    2.4001 H   0  0  0  0  0  0  0  0  0  0  0  0
    3.1737    1.2434    3.9514 H   0  0  0  0  0  0  0  0  0  0  0  0
    0.9721    2.3618    3.8249 H   0  0  0  0  0  0  0  0  0  0  0  0
    0.8160    0.5828    3.7852 H   0  0  0  0  0  0  0  0  0  0  0  0
   -0.7364    1.7202    2.2292 H   0  0  0  0  0  0  0  0  0  0  0  0
    0.6147    2.4845    1.3643 H   0  0  0  0  0  0  0  0  0  0  0  0
    1.4614    0.3943    0.5548 H   0  0  0  0  0  0  0  0  0  0  0  0
    0.5012   -0.5949    1.6260 H   0  0  0  0  0  0  0  0  0  0  0  0
   -1.5289    1.3460   -1.6228 H   0  0  0  0  0  0  0  0  0  0  0  0
   -0.9577    2.3050   -0.2679 H   0  0  0  0  0  0  0  0  0  0  0  0
    0.7244    1.0276   -2.5099 H   0  0  0  0  0  0  0  0  0  0  0  0
    1.4933    1.8041   -1.0864 H   0  0  0  0  0  0  0  0  0  0  0  0
    1.2164    3.1928   -3.2285 H   0  0  0  0  0  0  0  0  0  0  0  0
   -0.5455    3.2443   -2.8932 H   0  0  0  0  0  0  0  0  0  0  0  0
    1.6917    4.2229   -0.9750 H   0  0  0  0  0  0  0  0  0  0  0  0
   -0.0787    4.3530   -0.6694 H   0  0  0  0  0  0  0  0  0  0  0  0
    0.8332    6.4930   -1.4964 H   0  0  0  0  0  0  0  0  0  0  0  0
    1.4528    5.6885   -2.9875 H   0  0  0  0  0  0  0  0  0  0  0  0
   -0.3311    5.8037   -2.6903 H   0  0  0  0  0  0  0  0  0  0  0  0
   -0.9552   -1.8713   -0.6772 H   0  0  0  0  0  0  0  0  0  0  0  0
   -0.7475   -0.7879   -2.0022 H   0  0  0  0  0  0  0  0  0  0  0  0
    1.7758   -0.6715   -1.3913 H   0  0  0  0  0  0  0  0  0  0  0  0
    1.4540   -1.9187   -0.1421 H   0  0  0  0  0  0  0  0  0  0  0  0
    0.8243   -2.2295   -3.1524 H   0  0  0  0  0  0  0  0  0  0  0  0
    2.3442   -2.7526   -2.3562 H   0  0  0  0  0  0  0  0  0  0  0  0
   -0.4944   -3.8170   -1.7452 H   0  0  0  0  0  0  0  0  0  0  0  0
    0.9793   -4.2414   -0.7949 H   0  0  0  0  0  0  0  0  0  0  0  0
    0.5650   -4.7312   -3.8156 H   0  0  0  0  0  0  0  0  0  0  0  0
    2.0342   -5.1838   -2.8560 H   0  0  0  0  0  0  0  0  0  0  0  0
    0.4470   -5.9654   -2.5043 H   0  0  0  0  0  0  0  0  0  0  0  0
   -2.4069    0.9988    0.8343 H   0  0  0  0  0  0  0  0  0  0  0  0
   -2.7021   -0.3735   -0.1976 H   0  0  0  0  0  0  0  0  0  0  0  0
   -1.4797   -0.4323    2.6711 H   0  0  0  0  0  0  0  0  0  0  0  0
   -3.1472   -0.7018    2.2435 H   0  0  0  0  0  0  0  0  0  0  0  0
   -1.8631   -2.7811    2.7873 H   0  0  0  0  0  0  0  0  0  0  0  0
   -0.8252   -2.5486    1.3858 H   0  0  0  0  0  0  0  0  0  0  0  0
   -2.4819   -4.1509    0.7262 H   0  0  0  0  0  0  0  0  0  0  0  0
   -3.0204   -2.6538   -0.0858 H   0  0  0  0  0  0  0  0  0  0  0  0
   -4.7356   -2.2733    1.6762 H   0  0  0  0  0  0  0  0  0  0  0  0
   -4.1219   -3.7046    2.6051 H   0  0  0  0  0  0  0  0  0  0  0  0
   -4.8913   -3.9262    0.9908 H   0  0  0  0  0  0  0  0  0  0  0  0
  1  2  1  0
  2  3  1  0
  3  4  1  0
  4  5  1  0
  5  6  1  0
  6  7  1  0
  7  8  1  0
  8  9  1  0
  9 10  1  0
 10 11  1  0
  6 12  1  0
 12 13  1  0
 13 14  1  0
 14 15  1  0
 15 16  1  0
  6 17  1  0
 17 18  1  0
 18 19  1  0
 19 20  1  0
 20 21  1  0
  1 22  1  0
  1 23  1  0
  1 24  1  0
  2 25  1  0
  2 26  1  0
  3 27  1  0
  3 28  1  0
  4 29  1  0
  4 30  1  0
  5 31  1  0
  5 32  1  0
  7 33  1  0
  7 34  1  0
  8 35  1  0
  8 36  1  0
  9 37  1  0
  9 38  1  0
 10 39  1  0
 10 40  1  0
 11 41  1  0
 11 42  1  0
 11 43  1  0
 12 44  1  0
 12 45  1  0
 13 46  1  0
 13 47  1  0
 14 48  1  0
 14 49  1  0
 15 50  1  0
 15 51  1  0
 16 52  1  0
 16 53  1  0
 16 54  1  0
 17 55  1  0
 17 56  1  0
 18 57  1  0
 18 58  1  0
 19 59  1  0
 19 60  1  0
 20 61  1  0
 20 62  1  0
 21 63  1  0
 21 64  1  0
 21 65  1  0
M  CHG  1   6   1
M  END
