57_CCCCCC[N+](C)(C)C
     RDKit          3D

 32 31  0  0  0  0  0  0  0  0999 V2000
    4.6902   -0.4596   -0.5028 C   0  0  0  0  0  0  0  0  0  0  0  0
    3.3231    0.0702   -0.0968 C   0  0  0  0  0  0  0  0  0  0  0  0
    2.2464   -1.0081   -0.2303 C   0  0  0  0  0  0  0  0  0  0  0  0
    0.8669   -0.5576    0.2664 C   0  0  0  0  0  0  0  0  0  0  0  0
    0.1864    0.4446   -0.6655 C   0  0  0  0  0  0  0  0  0  0  0  0
   -1.0364    1.1724   -0.0939 C   0  0  0  0  0  0  0  0  0  0  0  0
   -2.2995    0.3311    0.1623 N   0  0  0  0  0  0  0  0  0  0  0  0
   -2.2289   -0.4211    1.4872 C   0  0  0  0  0  0  0  0  0  0  0  0
   -2.5913   -0.6418   -0.9713 C   0  0  0  0  0  0  0  0  0  0  0  0
   -3.4845    1.3071    0.2617 C   0  0  0  0  0  0  0  0  0  0  0  0
    5.4460    0.3255   -0.4020 H   0  0  0  0  0  0  0  0  0  0  0  0
    4.6865   -0.7963   -1.5444 H   0  0  0  0  0  0  0  0  0  0  0  0
    4.9891   -1.3014    0.1300 H   0  0  0  0  0  0  0  0  0  0  0  0
    3.3693    0.4238    0.9397 H   0  0  0  0  0  0  0  0  0  0  0  0
    3.0833    0.9341   -0.7248 H   0  0  0  0  0  0  0  0  0  0  0  0
    2.5502   -1.8828    0.3589 H   0  0  0  0  0  0  0  0  0  0  0  0
    2.1749   -1.3398   -1.2733 H   0  0  0  0  0  0  0  0  0  0  0  0
    0.2497   -1.4579    0.3335 H   0  0  0  0  0  0  0  0  0  0  0  0
    0.9559   -0.1415    1.2764 H   0  0  0  0  0  0  0  0  0  0  0  0
   -0.0595   -0.0417   -1.6163 H   0  0  0  0  0  0  0  0  0  0  0  0
    0.9068    1.2299   -0.9224 H   0  0  0  0  0  0  0  0  0  0  0  0
   -0.7886    1.6813    0.8452 H   0  0  0  0  0  0  0  0  0  0  0  0
   -1.3265    1.9429   -0.8195 H   0  0  0  0  0  0  0  0  0  0  0  0
   -1.4943   -1.2209    1.4147 H   0  0  0  0  0  0  0  0  0  0  0  0
   -3.2125   -0.8569    1.6895 H   0  0  0  0  0  0  0  0  0  0  0  0
   -1.9592    0.2861    2.2767 H   0  0  0  0  0  0  0  0  0  0  0  0
   -3.5677   -1.1019   -0.7903 H   0  0  0  0  0  0  0  0  0  0  0  0
   -1.8194   -1.4152   -0.9835 H   0  0  0  0  0  0  0  0  0  0  0  0
   -2.6011   -0.0836   -1.9119 H   0  0  0  0  0  0  0  0  0  0  0  0
   -4.3915    0.7346    0.4784 H   0  0  0  0  0  0  0  0  0  0  0  0
   -3.5868    1.8271   -0.6957 H   0  0  0  0  0  0  0  0  0  0  0  0
   -3.2769    2.0174    1.0677 H   0  0  0  0  0  0  0  0  0  0  0  0
  1  2  1  0
  2  3  1  0
  3  4  1  0
  4  5  1  0
  5  6  1  0
  6  7  1  0
  7  8  1  0
  7  9  1  0
  7 10  1  0
  1 11  1  0
  1 12  1  0
  1 13  1  0
  2 14  1  0
  2 15  1  0
  3 16  1  0
  3 17  1  0
  4 18  1  0
  4 19  1  0
  5 20  1  0
  5 21  1  0
  6 22  1  0
  6 23  1  0
  8 24  1  0
  8 25  1  0
  8 26  1  0
  9 27  1  0
  9 28  1  0
  9 29  1  0
 10 30  1  0
 10 31  1  0
 10 32  1  0
M  CHG  1   7   1
M  END
