96_CC(C)[N+](C)(C(C)C)C(C)C
     RDKit          3D

 35 34  0  0  0  0  0  0  0  0999 V2000
   -2.0292   -1.4448   -0.9453 C   0  0  0  0  0  0  0  0  0  0  0  0
   -0.5082   -1.1916   -0.9034 C   0  0  0  0  0  0  0  0  0  0  0  0
    0.1471   -2.5665   -0.6810 C   0  0  0  0  0  0  0  0  0  0  0  0
   -0.0762   -0.0937    0.2079 N   0  0  0  0  0  0  0  0  0  0  0  0
   -0.1138   -0.7985    1.5822 C   0  0  0  0  0  0  0  0  0  0  0  0
   -1.1725    1.0868    0.2122 C   0  0  0  0  0  0  0  0  0  0  0  0
   -0.9331    2.1645    1.2739 C   0  0  0  0  0  0  0  0  0  0  0  0
   -1.3002    1.7712   -1.1599 C   0  0  0  0  0  0  0  0  0  0  0  0
    1.3718    0.5474   -0.0713 C   0  0  0  0  0  0  0  0  0  0  0  0
    2.1144    0.9394    1.2170 C   0  0  0  0  0  0  0  0  0  0  0  0
    2.3226   -0.3094   -0.9081 C   0  0  0  0  0  0  0  0  0  0  0  0
   -2.2531   -2.2553   -1.6497 H   0  0  0  0  0  0  0  0  0  0  0  0
   -2.6010   -0.5851   -1.3002 H   0  0  0  0  0  0  0  0  0  0  0  0
   -2.4276   -1.7469    0.0277 H   0  0  0  0  0  0  0  0  0  0  0  0
   -0.1975   -0.7750   -1.8654 H   0  0  0  0  0  0  0  0  0  0  0  0
    1.2169   -2.5387   -0.4955 H   0  0  0  0  0  0  0  0  0  0  0  0
   -0.0004   -3.1891   -1.5717 H   0  0  0  0  0  0  0  0  0  0  0  0
   -0.3151   -3.1046    0.1546 H   0  0  0  0  0  0  0  0  0  0  0  0
    0.0564   -0.0770    2.3806 H   0  0  0  0  0  0  0  0  0  0  0  0
   -1.0968   -1.2543    1.7175 H   0  0  0  0  0  0  0  0  0  0  0  0
    0.6764   -1.5523    1.6116 H   0  0  0  0  0  0  0  0  0  0  0  0
   -2.1170    0.5988    0.4722 H   0  0  0  0  0  0  0  0  0  0  0  0
   -1.7830    2.8582    1.2844 H   0  0  0  0  0  0  0  0  0  0  0  0
   -0.8599    1.7630    2.2860 H   0  0  0  0  0  0  0  0  0  0  0  0
   -0.0487    2.7700    1.0581 H   0  0  0  0  0  0  0  0  0  0  0  0
   -0.4835    2.4732   -1.3536 H   0  0  0  0  0  0  0  0  0  0  0  0
   -1.3462    1.0794   -2.0017 H   0  0  0  0  0  0  0  0  0  0  0  0
   -2.2243    2.3611   -1.1843 H   0  0  0  0  0  0  0  0  0  0  0  0
    1.1863    1.4538   -0.6493 H   0  0  0  0  0  0  0  0  0  0  0  0
    3.0178    1.5078    0.9649 H   0  0  0  0  0  0  0  0  0  0  0  0
    1.5314    1.5699    1.8877 H   0  0  0  0  0  0  0  0  0  0  0  0
    2.4438    0.0589    1.7791 H   0  0  0  0  0  0  0  0  0  0  0  0
    1.8977   -0.6321   -1.8601 H   0  0  0  0  0  0  0  0  0  0  0  0
    2.6953   -1.1719   -0.3496 H   0  0  0  0  0  0  0  0  0  0  0  0
    3.2095    0.2832   -1.1675 H   0  0  0  0  0  0  0  0  0  0  0  0
  1  2  1  0
  2  3  1  0
  2  4  1  0
  4  5  1  0
  4  6  1  0
  6  7  1  0
  6  8  1  0
  4  9  1  0
  9 10  1  0
  9 11  1  0
  1 12  1  0
  1 13  1  0
  1 14  1  0
  2 15  1  0
  3 16  1  0
  3 17  1  0
  3 18  1  0
  5 19  1  0
  5 20  1  0
  5 21  1  0
  6 22  1  0
  7 23  1  0
  7 24  1  0
  7 25  1  0
  8 26  1  0
  8 27  1  0
  8 28  1  0
  9 29  1  0
 10 30  1  0
 10 31  1  0
 10 32  1  0
 11 33  1  0
 11 34  1  0
 11 35  1  0
M  CHG  1   4   1
M  END
